New Load.LOAD1 Phases=1 Bus1=136.1 kV=0.23 kW=1 PF=0.95
New Load.LOAD2 Phases=1 Bus1=158.1 kV=0.23 kW=1 PF=0.95
New Load.LOAD3 Phases=1 Bus1=168.1 kV=0.23 kW=1 PF=0.95
New Load.LOAD4 Phases=1 Bus1=190.1 kV=0.23 kW=1 PF=0.95
New Load.LOAD5 Phases=1 Bus1=202.1 kV=0.23 kW=1 PF=0.95
New Load.LOAD6 Phases=1 Bus1=214.1 kV=0.23 kW=1 PF=0.95
New Load.LOAD7 Phases=1 Bus1=215.1 kV=0.23 kW=1 PF=0.95
New Load.LOAD8 Phases=1 Bus1=253.1 kV=0.23 kW=1 PF=0.95
New Load.LOAD9 Phases=1 Bus1=267.1 kV=0.23 kW=1 PF=0.95
New Load.LOAD10 Phases=1 Bus1=281.1 kV=0.23 kW=1 PF=0.95
New Load.LOAD11 Phases=1 Bus1=282.1 kV=0.23 kW=1 PF=0.95
New Load.LOAD12 Phases=1 Bus1=298.1 kV=0.23 kW=1 PF=0.95
New Load.LOAD13 Phases=1 Bus1=303.3 kV=0.23 kW=1 PF=0.95
New Load.LOAD14 Phases=1 Bus1=316.1 kV=0.23 kW=1 PF=0.95
New Load.LOAD15 Phases=1 Bus1=320.3 kV=0.23 kW=1 PF=0.95
New Load.LOAD16 Phases=1 Bus1=325.1 kV=0.23 kW=1 PF=0.95
New Load.LOAD17 Phases=1 Bus1=334.1 kV=0.23 kW=1 PF=0.95
New Load.LOAD18 Phases=1 Bus1=338.3 kV=0.23 kW=1 PF=0.95
New Load.LOAD19 Phases=1 Bus1=343.1 kV=0.23 kW=1 PF=0.95
New Load.LOAD20 Phases=1 Bus1=352.1 kV=0.23 kW=1 PF=0.95
New Load.LOAD21 Phases=1 Bus1=361.1 kV=0.23 kW=1 PF=0.95
New Load.LOAD22 Phases=1 Bus1=362.1 kV=0.23 kW=1 PF=0.95
New Load.LOAD23 Phases=1 Bus1=370.1 kV=0.23 kW=1 PF=0.95
New Load.LOAD24 Phases=1 Bus1=375.2 kV=0.23 kW=1 PF=0.95
New Load.LOAD25 Phases=1 Bus1=380.1 kV=0.23 kW=1 PF=0.95
New Load.LOAD26 Phases=1 Bus1=388.1 kV=0.23 kW=1 PF=0.95
New Load.LOAD27 Phases=1 Bus1=392.2 kV=0.23 kW=1 PF=0.95
New Load.LOAD28 Phases=1 Bus1=393.3 kV=0.23 kW=1 PF=0.95
New Load.LOAD29 Phases=1 Bus1=398.1 kV=0.23 kW=1 PF=0.95
New Load.LOAD30 Phases=1 Bus1=402.1 kV=0.23 kW=1 PF=0.95
New Load.LOAD31 Phases=1 Bus1=411.2 kV=0.23 kW=1 PF=0.95
New Load.LOAD32 Phases=1 Bus1=412.3 kV=0.23 kW=1 PF=0.95
New Load.LOAD33 Phases=1 Bus1=424.1 kV=0.23 kW=1 PF=0.95
New Load.LOAD34 Phases=1 Bus1=431.1 kV=0.23 kW=1 PF=0.95
New Load.LOAD35 Phases=1 Bus1=435.1 kV=0.23 kW=1 PF=0.95
New Load.LOAD36 Phases=1 Bus1=443.2 kV=0.23 kW=1 PF=0.95
New Load.LOAD37 Phases=1 Bus1=447.1 kV=0.23 kW=1 PF=0.95
New Load.LOAD38 Phases=1 Bus1=458.2 kV=0.23 kW=1 PF=0.95
New Load.LOAD39 Phases=1 Bus1=462.1 kV=0.23 kW=1 PF=0.95
New Load.LOAD40 Phases=1 Bus1=474.2 kV=0.23 kW=1 PF=0.95
New Load.LOAD41 Phases=1 Bus1=479.1 kV=0.23 kW=1 PF=0.95
New Load.LOAD42 Phases=1 Bus1=492.2 kV=0.23 kW=1 PF=0.95
New Load.LOAD43 Phases=1 Bus1=496.1 kV=0.23 kW=1 PF=0.95
New Load.LOAD44 Phases=1 Bus1=510.2 kV=0.23 kW=1 PF=0.95
New Load.LOAD45 Phases=1 Bus1=519.1 kV=0.23 kW=1 PF=0.95
New Load.LOAD46 Phases=1 Bus1=532.1 kV=0.23 kW=1 PF=0.95
New Load.LOAD47 Phases=1 Bus1=533.1 kV=0.23 kW=1 PF=0.95
New Load.LOAD48 Phases=1 Bus1=537.1 kV=0.23 kW=1 PF=0.95
New Load.LOAD49 Phases=1 Bus1=550.1 kV=0.23 kW=1 PF=0.95
New Load.LOAD50 Phases=1 Bus1=555.1 kV=0.23 kW=1 PF=0.95
New Load.LOAD51 Phases=1 Bus1=569.1 kV=0.23 kW=1 PF=0.95
New Load.LOAD52 Phases=1 Bus1=575.1 kV=0.23 kW=1 PF=0.95
New Load.LOAD53 Phases=1 Bus1=585.2 kV=0.23 kW=1 PF=0.95
New Load.LOAD54 Phases=1 Bus1=586.3 kV=0.23 kW=1 PF=0.95
New Load.LOAD55 Phases=1 Bus1=595.1 kV=0.23 kW=1 PF=0.95
New Load.LOAD56 Phases=1 Bus1=598.1 kV=0.23 kW=1 PF=0.95
New Load.LOAD57 Phases=1 Bus1=604.3 kV=0.23 kW=1 PF=0.95
New Load.LOAD58 Phases=1 Bus1=609.1 kV=0.23 kW=1 PF=0.95
New Load.LOAD59 Phases=1 Bus1=615.1 kV=0.23 kW=1 PF=0.95
New Load.LOAD60 Phases=1 Bus1=623.3 kV=0.23 kW=1 PF=0.95
New Load.LOAD61 Phases=1 Bus1=653.2 kV=0.23 kW=1 PF=0.95
New Load.LOAD62 Phases=1 Bus1=654.1 kV=0.23 kW=1 PF=0.95
New Load.LOAD63 Phases=1 Bus1=668.3 kV=0.23 kW=1 PF=0.95
New Load.LOAD64 Phases=1 Bus1=687.1 kV=0.23 kW=1 PF=0.95
New Load.LOAD65 Phases=1 Bus1=692.3 kV=0.23 kW=1 PF=0.95
New Load.LOAD66 Phases=1 Bus1=710.3 kV=0.23 kW=1 PF=0.95
New Load.LOAD67 Phases=1 Bus1=732.1 kV=0.23 kW=1 PF=0.95
New Load.LOAD68 Phases=1 Bus1=742.3 kV=0.23 kW=1 PF=0.95
New Load.LOAD69 Phases=1 Bus1=743.3 kV=0.23 kW=1 PF=0.95
New Load.LOAD70 Phases=1 Bus1=753.1 kV=0.23 kW=1 PF=0.95
New Load.LOAD71 Phases=1 Bus1=760.3 kV=0.23 kW=1 PF=0.95
New Load.LOAD72 Phases=1 Bus1=761.1 kV=0.23 kW=1 PF=0.95
New Load.LOAD73 Phases=1 Bus1=763.3 kV=0.23 kW=1 PF=0.95
New Load.LOAD74 Phases=1 Bus1=769.1 kV=0.23 kW=1 PF=0.95
New Load.LOAD75 Phases=1 Bus1=770.1 kV=0.23 kW=1 PF=0.95
New Load.LOAD76 Phases=1 Bus1=778.3 kV=0.23 kW=1 PF=0.95
New Load.LOAD77 Phases=1 Bus1=779.3 kV=0.23 kW=1 PF=0.95
New Load.LOAD78 Phases=1 Bus1=815.3 kV=0.23 kW=1 PF=0.95
New Load.LOAD79 Phases=1 Bus1=816.2 kV=0.23 kW=1 PF=0.95
New Load.LOAD80 Phases=1 Bus1=822.1 kV=0.23 kW=1 PF=0.95
New Load.LOAD81 Phases=1 Bus1=827.1 kV=0.23 kW=1 PF=0.95
New Load.LOAD82 Phases=1 Bus1=837.3 kV=0.23 kW=1 PF=0.95
New Load.LOAD83 Phases=1 Bus1=847.1 kV=0.23 kW=1 PF=0.95
New Load.LOAD84 Phases=1 Bus1=867.2 kV=0.23 kW=1 PF=0.95
New Load.LOAD85 Phases=1 Bus1=868.3 kV=0.23 kW=1 PF=0.95
New Load.LOAD86 Phases=1 Bus1=873.1 kV=0.23 kW=1 PF=0.95
New Load.LOAD87 Phases=1 Bus1=890.3 kV=0.23 kW=1 PF=0.95
New Load.LOAD88 Phases=1 Bus1=900.1 kV=0.23 kW=1 PF=0.95
New Load.LOAD89 Phases=1 Bus1=912.2 kV=0.23 kW=1 PF=0.95
New Load.LOAD90 Phases=1 Bus1=922.2 kV=0.23 kW=1 PF=0.95
New Load.LOAD91 Phases=1 Bus1=927.1 kV=0.23 kW=1 PF=0.95
New Load.LOAD92 Phases=1 Bus1=941.3 kV=0.23 kW=1 PF=0.95
New Load.LOAD93 Phases=1 Bus1=945.3 kV=0.23 kW=1 PF=0.95
New Load.LOAD94 Phases=1 Bus1=948.3 kV=0.23 kW=1 PF=0.95
New Load.LOAD95 Phases=1 Bus1=952.1 kV=0.23 kW=1 PF=0.95
New Load.LOAD96 Phases=1 Bus1=971.3 kV=0.23 kW=1 PF=0.95
New Load.LOAD97 Phases=1 Bus1=993.2 kV=0.23 kW=1 PF=0.95
New Load.LOAD98 Phases=1 Bus1=994.2 kV=0.23 kW=1 PF=0.95
New Load.LOAD99 Phases=1 Bus1=995.3 kV=0.23 kW=1 PF=0.95
New Load.LOAD100 Phases=1 Bus1=999.3 kV=0.23 kW=1 PF=0.95
New Load.LOAD101 Phases=1 Bus1=1000.3 kV=0.23 kW=1 PF=0.95
New Load.LOAD102 Phases=1 Bus1=1009.2 kV=0.23 kW=1 PF=0.95
New Load.LOAD103 Phases=1 Bus1=1024.3 kV=0.23 kW=1 PF=0.95
New Load.LOAD104 Phases=1 Bus1=1032.2 kV=0.23 kW=1 PF=0.95
New Load.LOAD105 Phases=1 Bus1=1044.2 kV=0.23 kW=1 PF=0.95
New Load.LOAD106 Phases=1 Bus1=1048.3 kV=0.23 kW=1 PF=0.95
New Load.LOAD107 Phases=1 Bus1=1050.3 kV=0.23 kW=1 PF=0.95
New Load.LOAD108 Phases=1 Bus1=1053.1 kV=0.23 kW=1 PF=0.95
New Load.LOAD109 Phases=1 Bus1=1068.2 kV=0.23 kW=1 PF=0.95
New Load.LOAD110 Phases=1 Bus1=1072.3 kV=0.23 kW=1 PF=0.95
New Load.LOAD111 Phases=1 Bus1=1079.2 kV=0.23 kW=1 PF=0.95
New Load.LOAD112 Phases=1 Bus1=1092.2 kV=0.23 kW=1 PF=0.95
New Load.LOAD113 Phases=1 Bus1=1107.2 kV=0.23 kW=1 PF=0.95
New Load.LOAD114 Phases=1 Bus1=1108.2 kV=0.23 kW=1 PF=0.95
New Load.LOAD115 Phases=1 Bus1=1113.2 kV=0.23 kW=1 PF=0.95
New Load.LOAD116 Phases=1 Bus1=1114.3 kV=0.23 kW=1 PF=0.95
New Load.LOAD117 Phases=1 Bus1=1115.3 kV=0.23 kW=1 PF=0.95
New Load.LOAD118 Phases=1 Bus1=1136.2 kV=0.23 kW=1 PF=0.95
New Load.LOAD119 Phases=1 Bus1=1154.2 kV=0.23 kW=1 PF=0.95
New Load.LOAD120 Phases=1 Bus1=1170.2 kV=0.23 kW=1 PF=0.95
New Load.LOAD121 Phases=1 Bus1=1186.2 kV=0.23 kW=1 PF=0.95
New Load.LOAD122 Phases=1 Bus1=1195.2 kV=0.23 kW=1 PF=0.95
New Load.LOAD123 Phases=1 Bus1=1220.2 kV=0.23 kW=1 PF=0.95
New Load.LOAD124 Phases=1 Bus1=1232.2 kV=0.23 kW=1 PF=0.95
New Load.LOAD125 Phases=1 Bus1=1237.2 kV=0.23 kW=1 PF=0.95
New Load.LOAD126 Phases=1 Bus1=1271.2 kV=0.23 kW=1 PF=0.95
New Load.LOAD127 Phases=1 Bus1=1291.2 kV=0.23 kW=1 PF=0.95
New Load.LOAD128 Phases=1 Bus1=1292.2 kV=0.23 kW=1 PF=0.95
New Load.LOAD129 Phases=1 Bus1=1293.2 kV=0.23 kW=1 PF=0.95
New Load.LOAD130 Phases=1 Bus1=1294.2 kV=0.23 kW=1 PF=0.95
New Load.LOAD131 Phases=1 Bus1=1295.2 kV=0.23 kW=1 PF=0.95
New Load.LOAD132 Phases=1 Bus1=1296.2 kV=0.23 kW=1 PF=0.95
New Load.LOAD133 Phases=1 Bus1=1297.2 kV=0.23 kW=1 PF=0.95
New Load.LOAD134 Phases=1 Bus1=1298.2 kV=0.23 kW=1 PF=0.95
New Load.LOAD135 Phases=1 Bus1=1299.2 kV=0.23 kW=1 PF=0.95
New Load.LOAD136 Phases=1 Bus1=1300.2 kV=0.23 kW=1 PF=0.95
New Load.LOAD137 Phases=1 Bus1=1301.2 kV=0.23 kW=1 PF=0.95
New Load.LOAD138 Phases=1 Bus1=1302.2 kV=0.23 kW=1 PF=0.95
New Load.LOAD139 Phases=1 Bus1=1303.2 kV=0.23 kW=1 PF=0.95
New Load.LOAD140 Phases=1 Bus1=1304.2 kV=0.23 kW=1 PF=0.95
New Load.LOAD141 Phases=1 Bus1=1305.2 kV=0.23 kW=1 PF=0.95
New Load.LOAD142 Phases=1 Bus1=1306.2 kV=0.23 kW=1 PF=0.95
New Load.LOAD143 Phases=1 Bus1=1307.2 kV=0.23 kW=1 PF=0.95
New Load.LOAD144 Phases=1 Bus1=1308.2 kV=0.23 kW=1 PF=0.95
New Load.LOAD145 Phases=1 Bus1=1327.2 kV=0.23 kW=1 PF=0.95
New Load.LOAD146 Phases=1 Bus1=1338.2 kV=0.23 kW=1 PF=0.95
New Load.LOAD147 Phases=1 Bus1=1339.2 kV=0.23 kW=1 PF=0.95
New Load.LOAD148 Phases=1 Bus1=1340.2 kV=0.23 kW=1 PF=0.95
New Load.LOAD149 Phases=1 Bus1=1341.2 kV=0.23 kW=1 PF=0.95
New Load.LOAD150 Phases=1 Bus1=1342.2 kV=0.23 kW=1 PF=0.95
New Load.LOAD151 Phases=1 Bus1=1343.2 kV=0.23 kW=1 PF=0.95
New Load.LOAD152 Phases=1 Bus1=1344.2 kV=0.23 kW=1 PF=0.95
New Load.LOAD153 Phases=1 Bus1=1345.2 kV=0.23 kW=1 PF=0.95
New Load.LOAD154 Phases=1 Bus1=1348.2 kV=0.23 kW=1 PF=0.95
New Load.LOAD155 Phases=1 Bus1=1358.2 kV=0.23 kW=1 PF=0.95
New Load.LOAD156 Phases=1 Bus1=1359.2 kV=0.23 kW=1 PF=0.95
New Load.LOAD157 Phases=1 Bus1=1360.1 kV=0.23 kW=1 PF=0.95
New Load.LOAD158 Phases=1 Bus1=1365.2 kV=0.23 kW=1 PF=0.95
New Load.LOAD159 Phases=1 Bus1=1374.2 kV=0.23 kW=1 PF=0.95
New Load.LOAD160 Phases=1 Bus1=1379.2 kV=0.23 kW=1 PF=0.95
New Load.LOAD161 Phases=1 Bus1=1384.2 kV=0.23 kW=1 PF=0.95
New Load.LOAD162 Phases=1 Bus1=1389.2 kV=0.23 kW=1 PF=0.95
New Load.LOAD163 Phases=1 Bus1=1393.2 kV=0.23 kW=1 PF=0.95
New Load.LOAD164 Phases=1 Bus1=1397.2 kV=0.23 kW=1 PF=0.95
New Load.LOAD165 Phases=1 Bus1=1400.2 kV=0.23 kW=1 PF=0.95
New Load.LOAD166 Phases=1 Bus1=1404.3 kV=0.23 kW=1 PF=0.95
New Load.LOAD167 Phases=1 Bus1=1405.2 kV=0.23 kW=1 PF=0.95
New Load.LOAD168 Phases=1 Bus1=1406.2 kV=0.23 kW=1 PF=0.95
New Load.LOAD169 Phases=1 Bus1=1409.2 kV=0.23 kW=1 PF=0.95
New Load.LOAD170 Phases=1 Bus1=1429.2 kV=0.23 kW=1 PF=0.95
New Load.LOAD171 Phases=1 Bus1=1450.2 kV=0.23 kW=1 PF=0.95
New Load.LOAD172 Phases=1 Bus1=1457.2 kV=0.23 kW=1 PF=0.95
New Load.LOAD173 Phases=1 Bus1=1461.2 kV=0.23 kW=1 PF=0.95
New Load.LOAD174 Phases=1 Bus1=1464.2 kV=0.23 kW=1 PF=0.95
New Load.LOAD175 Phases=1 Bus1=1471.2 kV=0.23 kW=1 PF=0.95
New Load.LOAD176 Phases=1 Bus1=1472.2 kV=0.23 kW=1 PF=0.95
New Load.LOAD177 Phases=1 Bus1=1478.2 kV=0.23 kW=1 PF=0.95
New Load.LOAD178 Phases=1 Bus1=1485.2 kV=0.23 kW=1 PF=0.95
New Load.LOAD179 Phases=1 Bus1=1499.2 kV=0.23 kW=1 PF=0.95
New Load.LOAD180 Phases=1 Bus1=1510.2 kV=0.23 kW=1 PF=0.95
New Load.LOAD181 Phases=1 Bus1=1526.2 kV=0.23 kW=1 PF=0.95
New Load.LOAD182 Phases=1 Bus1=1534.2 kV=0.23 kW=1 PF=0.95
New Load.LOAD183 Phases=1 Bus1=1536.2 kV=0.23 kW=1 PF=0.95
New Load.LOAD184 Phases=1 Bus1=1540.2 kV=0.23 kW=1 PF=0.95
New Load.LOAD185 Phases=1 Bus1=1543.3 kV=0.23 kW=1 PF=0.95
New Load.LOAD186 Phases=1 Bus1=1544.2 kV=0.23 kW=1 PF=0.95