New Load.LOAD1 Phases=1 Bus1=112.1 kV=0.23 kW=1 PF=0.95
New Load.LOAD2 Phases=1 Bus1=122.3 kV=0.23 kW=1 PF=0.95
New Load.LOAD3 Phases=1 Bus1=152.2 kV=0.23 kW=1 PF=0.95
New Load.LOAD4 Phases=1 Bus1=229.1 kV=0.23 kW=1 PF=0.95
New Load.LOAD5 Phases=1 Bus1=355.3 kV=0.23 kW=1 PF=0.95
New Load.LOAD6 Phases=1 Bus1=456.1 kV=0.23 kW=1 PF=0.95
New Load.LOAD7 Phases=1 Bus1=494.1 kV=0.23 kW=1 PF=0.95
New Load.LOAD8 Phases=1 Bus1=589.2 kV=0.23 kW=1 PF=0.95
New Load.LOAD9 Phases=1 Bus1=620.2 kV=0.23 kW=1 PF=0.95
New Load.LOAD10 Phases=1 Bus1=845.1 kV=0.23 kW=1 PF=0.95
New Load.LOAD11 Phases=1 Bus1=859.3 kV=0.23 kW=1 PF=0.95
New Load.LOAD12 Phases=1 Bus1=896.1 kV=0.23 kW=1 PF=0.95
New Load.LOAD13 Phases=1 Bus1=990.1 kV=0.23 kW=1 PF=0.95
New Load.LOAD14 Phases=1 Bus1=996.3 kV=0.23 kW=1 PF=0.95
New Load.LOAD15 Phases=1 Bus1=1029.1 kV=0.23 kW=1 PF=0.95
New Load.LOAD16 Phases=1 Bus1=1062.1 kV=0.23 kW=1 PF=0.95
New Load.LOAD17 Phases=1 Bus1=1072.3 kV=0.23 kW=1 PF=0.95
New Load.LOAD18 Phases=1 Bus1=1097.2 kV=0.23 kW=1 PF=0.95
New Load.LOAD19 Phases=1 Bus1=1102.2 kV=0.23 kW=1 PF=0.95
New Load.LOAD20 Phases=1 Bus1=1104.1 kV=0.23 kW=1 PF=0.95
New Load.LOAD21 Phases=1 Bus1=1126.2 kV=0.23 kW=1 PF=0.95
New Load.LOAD22 Phases=1 Bus1=1153.2 kV=0.23 kW=1 PF=0.95
New Load.LOAD23 Phases=1 Bus1=1166.2 kV=0.23 kW=1 PF=0.95
New Load.LOAD24 Phases=1 Bus1=1181.1 kV=0.23 kW=1 PF=0.95
New Load.LOAD25 Phases=1 Bus1=1212.1 kV=0.23 kW=1 PF=0.95
New Load.LOAD26 Phases=1 Bus1=1307.3 kV=0.23 kW=1 PF=0.95
New Load.LOAD27 Phases=1 Bus1=1309.2 kV=0.23 kW=1 PF=0.95
New Load.LOAD28 Phases=1 Bus1=1329.2 kV=0.23 kW=1 PF=0.95
New Load.LOAD29 Phases=1 Bus1=1330.3 kV=0.23 kW=1 PF=0.95
New Load.LOAD30 Phases=1 Bus1=1340.1 kV=0.23 kW=1 PF=0.95
New Load.LOAD31 Phases=1 Bus1=1354.1 kV=0.23 kW=1 PF=0.95
New Load.LOAD32 Phases=1 Bus1=1374.2 kV=0.23 kW=1 PF=0.95
New Load.LOAD33 Phases=1 Bus1=1380.2 kV=0.23 kW=1 PF=0.95
New Load.LOAD34 Phases=1 Bus1=1403.2 kV=0.23 kW=1 PF=0.95
New Load.LOAD35 Phases=1 Bus1=1408.2 kV=0.23 kW=1 PF=0.95
New Load.LOAD36 Phases=1 Bus1=1419.3 kV=0.23 kW=1 PF=0.95
New Load.LOAD37 Phases=1 Bus1=1466.3 kV=0.23 kW=1 PF=0.95
New Load.LOAD38 Phases=1 Bus1=1471.3 kV=0.23 kW=1 PF=0.95
New Load.LOAD39 Phases=1 Bus1=1504.3 kV=0.23 kW=1 PF=0.95
New Load.LOAD40 Phases=1 Bus1=1511.3 kV=0.23 kW=1 PF=0.95
New Load.LOAD41 Phases=1 Bus1=1523.1 kV=0.23 kW=1 PF=0.95
New Load.LOAD42 Phases=1 Bus1=1546.1 kV=0.23 kW=1 PF=0.95
New Load.LOAD43 Phases=1 Bus1=1552.2 kV=0.23 kW=1 PF=0.95
New Load.LOAD44 Phases=1 Bus1=1586.2 kV=0.23 kW=1 PF=0.95
New Load.LOAD45 Phases=1 Bus1=1618.3 kV=0.23 kW=1 PF=0.95
New Load.LOAD46 Phases=1 Bus1=1676.1 kV=0.23 kW=1 PF=0.95
New Load.LOAD47 Phases=1 Bus1=1677.1 kV=0.23 kW=1 PF=0.95
New Load.LOAD48 Phases=1 Bus1=1680.3 kV=0.23 kW=1 PF=0.95
New Load.LOAD49 Phases=1 Bus1=1699.2 kV=0.23 kW=1 PF=0.95
New Load.LOAD50 Phases=1 Bus1=1700.3 kV=0.23 kW=1 PF=0.95
New Load.LOAD51 Phases=1 Bus1=1719.2 kV=0.23 kW=1 PF=0.95
New Load.LOAD52 Phases=1 Bus1=1740.3 kV=0.23 kW=1 PF=0.95
New Load.LOAD53 Phases=1 Bus1=1814.2 kV=0.23 kW=1 PF=0.95
New Load.LOAD54 Phases=1 Bus1=1826.2 kV=0.23 kW=1 PF=0.95
New Load.LOAD55 Phases=1 Bus1=1829.3 kV=0.23 kW=1 PF=0.95
New Load.LOAD56 Phases=1 Bus1=1840.2 kV=0.23 kW=1 PF=0.95
New Load.LOAD57 Phases=1 Bus1=1871.1 kV=0.23 kW=1 PF=0.95
New Load.LOAD58 Phases=1 Bus1=1876.1 kV=0.23 kW=1 PF=0.95
New Load.LOAD59 Phases=1 Bus1=1925.2 kV=0.23 kW=1 PF=0.95
New Load.LOAD60 Phases=1 Bus1=2005.3 kV=0.23 kW=1 PF=0.95
New Load.LOAD61 Phases=1 Bus1=2012.2 kV=0.23 kW=1 PF=0.95
New Load.LOAD62 Phases=1 Bus1=2035.1 kV=0.23 kW=1 PF=0.95
New Load.LOAD63 Phases=1 Bus1=2093.2 kV=0.23 kW=1 PF=0.95
New Load.LOAD64 Phases=1 Bus1=2134.1 kV=0.23 kW=1 PF=0.95
New Load.LOAD65 Phases=1 Bus1=2176.1 kV=0.23 kW=1 PF=0.95
New Load.LOAD66 Phases=1 Bus1=2177.2 kV=0.23 kW=1 PF=0.95
New Load.LOAD67 Phases=1 Bus1=2181.2 kV=0.23 kW=1 PF=0.95
New Load.LOAD68 Phases=1 Bus1=2229.1 kV=0.23 kW=1 PF=0.95
New Load.LOAD69 Phases=1 Bus1=2258.3 kV=0.23 kW=1 PF=0.95
New Load.LOAD70 Phases=1 Bus1=2279.1 kV=0.23 kW=1 PF=0.95
New Load.LOAD71 Phases=1 Bus1=2280.2 kV=0.23 kW=1 PF=0.95
New Load.LOAD72 Phases=1 Bus1=2318.3 kV=0.23 kW=1 PF=0.95
New Load.LOAD73 Phases=1 Bus1=2340.3 kV=0.23 kW=1 PF=0.95
New Load.LOAD74 Phases=1 Bus1=2360.2 kV=0.23 kW=1 PF=0.95
New Load.LOAD75 Phases=1 Bus1=2408.3 kV=0.23 kW=1 PF=0.95
New Load.LOAD76 Phases=1 Bus1=2409.3 kV=0.23 kW=1 PF=0.95
New Load.LOAD77 Phases=1 Bus1=2424.2 kV=0.23 kW=1 PF=0.95
New Load.LOAD78 Phases=1 Bus1=2458.1 kV=0.23 kW=1 PF=0.95
New Load.LOAD79 Phases=1 Bus1=2467.1 kV=0.23 kW=1 PF=0.95
New Load.LOAD80 Phases=1 Bus1=2477.1 kV=0.23 kW=1 PF=0.95
New Load.LOAD81 Phases=1 Bus1=2480.2 kV=0.23 kW=1 PF=0.95
New Load.LOAD82 Phases=1 Bus1=2493.2 kV=0.23 kW=1 PF=0.95
New Load.LOAD83 Phases=1 Bus1=2511.2 kV=0.23 kW=1 PF=0.95
New Load.LOAD84 Phases=1 Bus1=2523.2 kV=0.23 kW=1 PF=0.95
New Load.LOAD85 Phases=1 Bus1=2660.3 kV=0.23 kW=1 PF=0.95
New Load.LOAD86 Phases=1 Bus1=2661.2 kV=0.23 kW=1 PF=0.95
New Load.LOAD87 Phases=1 Bus1=2702.3 kV=0.23 kW=1 PF=0.95
New Load.LOAD88 Phases=1 Bus1=2751.3 kV=0.23 kW=1 PF=0.95
New Load.LOAD89 Phases=1 Bus1=2754.1 kV=0.23 kW=1 PF=0.95
New Load.LOAD90 Phases=1 Bus1=2755.1 kV=0.23 kW=1 PF=0.95
New Load.LOAD91 Phases=1 Bus1=2768.3 kV=0.23 kW=1 PF=0.95
New Load.LOAD92 Phases=1 Bus1=2817.1 kV=0.23 kW=1 PF=0.95
New Load.LOAD93 Phases=1 Bus1=2854.1 kV=0.23 kW=1 PF=0.95
New Load.LOAD94 Phases=1 Bus1=2872.3 kV=0.23 kW=1 PF=0.95
New Load.LOAD95 Phases=1 Bus1=2899.2 kV=0.23 kW=1 PF=0.95
New Load.LOAD96 Phases=1 Bus1=2921.2 kV=0.23 kW=1 PF=0.95
New Load.LOAD97 Phases=1 Bus1=2934.3 kV=0.23 kW=1 PF=0.95
New Load.LOAD98 Phases=1 Bus1=2977.1 kV=0.23 kW=1 PF=0.95
New Load.LOAD99 Phases=1 Bus1=3028.1 kV=0.23 kW=1 PF=0.95
New Load.LOAD100 Phases=1 Bus1=3039.1 kV=0.23 kW=1 PF=0.95
New Load.LOAD101 Phases=1 Bus1=3042.1 kV=0.23 kW=1 PF=0.95
New Load.LOAD102 Phases=1 Bus1=3048.3 kV=0.23 kW=1 PF=0.95
New Load.LOAD103 Phases=1 Bus1=3058.3 kV=0.23 kW=1 PF=0.95
New Load.LOAD104 Phases=1 Bus1=3084.1 kV=0.23 kW=1 PF=0.95
New Load.LOAD105 Phases=1 Bus1=3119.3 kV=0.23 kW=1 PF=0.95
New Load.LOAD106 Phases=1 Bus1=3124.3 kV=0.23 kW=1 PF=0.95
New Load.LOAD107 Phases=1 Bus1=3149.2 kV=0.23 kW=1 PF=0.95
New Load.LOAD108 Phases=1 Bus1=3188.1 kV=0.23 kW=1 PF=0.95
New Load.LOAD109 Phases=1 Bus1=3190.2 kV=0.23 kW=1 PF=0.95
New Load.LOAD110 Phases=1 Bus1=3210.3 kV=0.23 kW=1 PF=0.95
New Load.LOAD111 Phases=1 Bus1=3223.2 kV=0.23 kW=1 PF=0.95
New Load.LOAD112 Phases=1 Bus1=3228.3 kV=0.23 kW=1 PF=0.95
New Load.LOAD113 Phases=1 Bus1=3242.1 kV=0.23 kW=1 PF=0.95
New Load.LOAD114 Phases=1 Bus1=3257.3 kV=0.23 kW=1 PF=0.95
New Load.LOAD115 Phases=1 Bus1=3305.2 kV=0.23 kW=1 PF=0.95
New Load.LOAD116 Phases=1 Bus1=3312.2 kV=0.23 kW=1 PF=0.95
New Load.LOAD117 Phases=1 Bus1=3315.3 kV=0.23 kW=1 PF=0.95