New Load.LOAD1 Phases=1 Bus1=68.1 kV=0.23 kW=1 PF=0.95
New Load.LOAD2 Phases=1 Bus1=83.2 kV=0.23 kW=1 PF=0.95
New Load.LOAD3 Phases=1 Bus1=98.3 kV=0.23 kW=1 PF=0.95
New Load.LOAD4 Phases=1 Bus1=105.1 kV=0.23 kW=1 PF=0.95
New Load.LOAD5 Phases=1 Bus1=134.2 kV=0.23 kW=1 PF=0.95
New Load.LOAD6 Phases=1 Bus1=138.3 kV=0.23 kW=1 PF=0.95
New Load.LOAD7 Phases=1 Bus1=183.1 kV=0.23 kW=1 PF=0.95
New Load.LOAD8 Phases=1 Bus1=307.2 kV=0.23 kW=1 PF=0.95
New Load.LOAD9 Phases=1 Bus1=308.2 kV=0.23 kW=1 PF=0.95
New Load.LOAD10 Phases=1 Bus1=309.2 kV=0.23 kW=1 PF=0.95
New Load.LOAD11 Phases=1 Bus1=310.2 kV=0.23 kW=1 PF=0.95
New Load.LOAD12 Phases=1 Bus1=338.1 kV=0.23 kW=1 PF=0.95
New Load.LOAD13 Phases=1 Bus1=386.2 kV=0.23 kW=1 PF=0.95
New Load.LOAD14 Phases=1 Bus1=401.2 kV=0.23 kW=1 PF=0.95
New Load.LOAD15 Phases=1 Bus1=521.2 kV=0.23 kW=1 PF=0.95
New Load.LOAD16 Phases=1 Bus1=522.2 kV=0.23 kW=1 PF=0.95
New Load.LOAD17 Phases=1 Bus1=523.2 kV=0.23 kW=1 PF=0.95
New Load.LOAD18 Phases=1 Bus1=560.3 kV=0.23 kW=1 PF=0.95
New Load.LOAD19 Phases=1 Bus1=595.1 kV=0.23 kW=1 PF=0.95
New Load.LOAD20 Phases=1 Bus1=596.1 kV=0.23 kW=1 PF=0.95
New Load.LOAD21 Phases=1 Bus1=598.3 kV=0.23 kW=1 PF=0.95
New Load.LOAD22 Phases=1 Bus1=605.1 kV=0.23 kW=1 PF=0.95
New Load.LOAD23 Phases=1 Bus1=625.3 kV=0.23 kW=1 PF=0.95
New Load.LOAD24 Phases=1 Bus1=626.3 kV=0.23 kW=1 PF=0.95
New Load.LOAD25 Phases=1 Bus1=650.1 kV=0.23 kW=1 PF=0.95
New Load.LOAD26 Phases=1 Bus1=654.1 kV=0.23 kW=1 PF=0.95
New Load.LOAD27 Phases=1 Bus1=655.1 kV=0.23 kW=1 PF=0.95
New Load.LOAD28 Phases=1 Bus1=673.2 kV=0.23 kW=1 PF=0.95
New Load.LOAD29 Phases=1 Bus1=681.2 kV=0.23 kW=1 PF=0.95
New Load.LOAD30 Phases=1 Bus1=701.1 kV=0.23 kW=1 PF=0.95
New Load.LOAD31 Phases=1 Bus1=712.3 kV=0.23 kW=1 PF=0.95
New Load.LOAD32 Phases=1 Bus1=726.3 kV=0.23 kW=1 PF=0.95
New Load.LOAD33 Phases=1 Bus1=749.1 kV=0.23 kW=1 PF=0.95
New Load.LOAD34 Phases=1 Bus1=812.2 kV=0.23 kW=1 PF=0.95
New Load.LOAD35 Phases=1 Bus1=867.3 kV=0.23 kW=1 PF=0.95
New Load.LOAD36 Phases=1 Bus1=878.3 kV=0.23 kW=1 PF=0.95
New Load.LOAD37 Phases=1 Bus1=880.2 kV=0.23 kW=1 PF=0.95
New Load.LOAD38 Phases=1 Bus1=887.2 kV=0.23 kW=1 PF=0.95
New Load.LOAD39 Phases=1 Bus1=906.1 kV=0.23 kW=1 PF=0.95
New Load.LOAD40 Phases=1 Bus1=922.3 kV=0.23 kW=1 PF=0.95
New Load.LOAD41 Phases=1 Bus1=1062.1 kV=0.23 kW=1 PF=0.95
New Load.LOAD42 Phases=1 Bus1=1065.2 kV=0.23 kW=1 PF=0.95
New Load.LOAD43 Phases=1 Bus1=1082.3 kV=0.23 kW=1 PF=0.95
New Load.LOAD44 Phases=1 Bus1=1133.2 kV=0.23 kW=1 PF=0.95
New Load.LOAD45 Phases=1 Bus1=1135.3 kV=0.23 kW=1 PF=0.95
New Load.LOAD46 Phases=1 Bus1=1136.1 kV=0.23 kW=1 PF=0.95
New Load.LOAD47 Phases=1 Bus1=1145.2 kV=0.23 kW=1 PF=0.95
New Load.LOAD48 Phases=1 Bus1=1154.2 kV=0.23 kW=1 PF=0.95
New Load.LOAD49 Phases=1 Bus1=1174.3 kV=0.23 kW=1 PF=0.95
New Load.LOAD50 Phases=1 Bus1=1201.3 kV=0.23 kW=1 PF=0.95
New Load.LOAD51 Phases=1 Bus1=1208.1 kV=0.23 kW=1 PF=0.95
New Load.LOAD52 Phases=1 Bus1=1297.2 kV=0.23 kW=1 PF=0.95
New Load.LOAD53 Phases=1 Bus1=1326.2 kV=0.23 kW=1 PF=0.95
New Load.LOAD54 Phases=1 Bus1=1340.2 kV=0.23 kW=1 PF=0.95
New Load.LOAD55 Phases=1 Bus1=1343.2 kV=0.23 kW=1 PF=0.95
New Load.LOAD56 Phases=1 Bus1=1381.1 kV=0.23 kW=1 PF=0.95
New Load.LOAD57 Phases=1 Bus1=1385.1 kV=0.23 kW=1 PF=0.95
New Load.LOAD58 Phases=1 Bus1=1411.2 kV=0.23 kW=1 PF=0.95
New Load.LOAD59 Phases=1 Bus1=1449.2 kV=0.23 kW=1 PF=0.95
New Load.LOAD60 Phases=1 Bus1=1450.2 kV=0.23 kW=1 PF=0.95
New Load.LOAD61 Phases=1 Bus1=1451.2 kV=0.23 kW=1 PF=0.95
New Load.LOAD62 Phases=1 Bus1=1455.2 kV=0.23 kW=1 PF=0.95
New Load.LOAD63 Phases=1 Bus1=1464.2 kV=0.23 kW=1 PF=0.95
New Load.LOAD64 Phases=1 Bus1=1468.2 kV=0.23 kW=1 PF=0.95
New Load.LOAD65 Phases=1 Bus1=1561.1 kV=0.23 kW=1 PF=0.95
New Load.LOAD66 Phases=1 Bus1=1562.1 kV=0.23 kW=1 PF=0.95
New Load.LOAD67 Phases=1 Bus1=1578.3 kV=0.23 kW=1 PF=0.95
New Load.LOAD68 Phases=1 Bus1=1604.1 kV=0.23 kW=1 PF=0.95
New Load.LOAD69 Phases=1 Bus1=1605.3 kV=0.23 kW=1 PF=0.95
New Load.LOAD70 Phases=1 Bus1=1611.2 kV=0.23 kW=1 PF=0.95
New Load.LOAD71 Phases=1 Bus1=1612.2 kV=0.23 kW=1 PF=0.95
New Load.LOAD72 Phases=1 Bus1=1613.2 kV=0.23 kW=1 PF=0.95
New Load.LOAD73 Phases=1 Bus1=1623.3 kV=0.23 kW=1 PF=0.95
New Load.LOAD74 Phases=1 Bus1=1651.3 kV=0.23 kW=1 PF=0.95
New Load.LOAD75 Phases=1 Bus1=1663.2 kV=0.23 kW=1 PF=0.95
New Load.LOAD76 Phases=1 Bus1=1664.2 kV=0.23 kW=1 PF=0.95
New Load.LOAD77 Phases=1 Bus1=1667.1 kV=0.23 kW=1 PF=0.95
New Load.LOAD78 Phases=1 Bus1=1676.2 kV=0.23 kW=1 PF=0.95
New Load.LOAD79 Phases=1 Bus1=1693.3 kV=0.23 kW=1 PF=0.95