New Load.LOAD1 Phases=1 Bus1=90.1 kV=0.23 kW=1 PF=0.95
New Load.LOAD2 Phases=1 Bus1=159.2 kV=0.23 kW=1 PF=0.95
New Load.LOAD3 Phases=1 Bus1=160.3 kV=0.23 kW=1 PF=0.95
New Load.LOAD4 Phases=1 Bus1=161.1 kV=0.23 kW=1 PF=0.95
New Load.LOAD5 Phases=1 Bus1=162.2 kV=0.23 kW=1 PF=0.95
New Load.LOAD6 Phases=1 Bus1=163.3 kV=0.23 kW=1 PF=0.95
New Load.LOAD7 Phases=1 Bus1=164.1 kV=0.23 kW=1 PF=0.95
New Load.LOAD8 Phases=1 Bus1=165.2 kV=0.23 kW=1 PF=0.95
New Load.LOAD9 Phases=1 Bus1=166.3 kV=0.23 kW=1 PF=0.95
New Load.LOAD10 Phases=1 Bus1=167.1 kV=0.23 kW=1 PF=0.95
New Load.LOAD11 Phases=1 Bus1=168.2 kV=0.23 kW=1 PF=0.95
New Load.LOAD12 Phases=1 Bus1=169.3 kV=0.23 kW=1 PF=0.95
New Load.LOAD13 Phases=1 Bus1=170.1 kV=0.23 kW=1 PF=0.95
New Load.LOAD14 Phases=1 Bus1=171.2 kV=0.23 kW=1 PF=0.95
New Load.LOAD15 Phases=1 Bus1=172.3 kV=0.23 kW=1 PF=0.95
New Load.LOAD16 Phases=1 Bus1=173.1 kV=0.23 kW=1 PF=0.95
New Load.LOAD17 Phases=1 Bus1=174.2 kV=0.23 kW=1 PF=0.95
New Load.LOAD18 Phases=1 Bus1=175.3 kV=0.23 kW=1 PF=0.95
New Load.LOAD19 Phases=1 Bus1=176.1 kV=0.23 kW=1 PF=0.95
New Load.LOAD20 Phases=1 Bus1=177.2 kV=0.23 kW=1 PF=0.95
New Load.LOAD21 Phases=1 Bus1=178.3 kV=0.23 kW=1 PF=0.95
New Load.LOAD22 Phases=1 Bus1=179.1 kV=0.23 kW=1 PF=0.95
New Load.LOAD23 Phases=1 Bus1=180.2 kV=0.23 kW=1 PF=0.95
New Load.LOAD24 Phases=1 Bus1=181.3 kV=0.23 kW=1 PF=0.95
New Load.LOAD25 Phases=1 Bus1=182.1 kV=0.23 kW=1 PF=0.95
New Load.LOAD26 Phases=1 Bus1=183.2 kV=0.23 kW=1 PF=0.95
New Load.LOAD27 Phases=1 Bus1=197.3 kV=0.23 kW=1 PF=0.95
New Load.LOAD28 Phases=1 Bus1=198.1 kV=0.23 kW=1 PF=0.95
New Load.LOAD29 Phases=1 Bus1=199.2 kV=0.23 kW=1 PF=0.95
New Load.LOAD30 Phases=1 Bus1=200.3 kV=0.23 kW=1 PF=0.95
New Load.LOAD31 Phases=1 Bus1=201.1 kV=0.23 kW=1 PF=0.95
New Load.LOAD32 Phases=1 Bus1=202.2 kV=0.23 kW=1 PF=0.95
New Load.LOAD33 Phases=1 Bus1=203.3 kV=0.23 kW=1 PF=0.95
New Load.LOAD34 Phases=1 Bus1=204.1 kV=0.23 kW=1 PF=0.95
New Load.LOAD35 Phases=1 Bus1=205.2 kV=0.23 kW=1 PF=0.95
New Load.LOAD36 Phases=1 Bus1=206.3 kV=0.23 kW=1 PF=0.95
New Load.LOAD37 Phases=1 Bus1=207.1 kV=0.23 kW=1 PF=0.95
New Load.LOAD38 Phases=1 Bus1=208.2 kV=0.23 kW=1 PF=0.95
New Load.LOAD39 Phases=1 Bus1=209.3 kV=0.23 kW=1 PF=0.95
New Load.LOAD40 Phases=1 Bus1=210.1 kV=0.23 kW=1 PF=0.95
New Load.LOAD41 Phases=1 Bus1=211.2 kV=0.23 kW=1 PF=0.95
New Load.LOAD42 Phases=1 Bus1=212.3 kV=0.23 kW=1 PF=0.95
New Load.LOAD43 Phases=1 Bus1=213.1 kV=0.23 kW=1 PF=0.95
New Load.LOAD44 Phases=1 Bus1=214.2 kV=0.23 kW=1 PF=0.95
New Load.LOAD45 Phases=1 Bus1=215.3 kV=0.23 kW=1 PF=0.95
New Load.LOAD46 Phases=1 Bus1=216.1 kV=0.23 kW=1 PF=0.95
New Load.LOAD47 Phases=1 Bus1=217.2 kV=0.23 kW=1 PF=0.95
New Load.LOAD48 Phases=1 Bus1=218.3 kV=0.23 kW=1 PF=0.95
New Load.LOAD49 Phases=1 Bus1=219.1 kV=0.23 kW=1 PF=0.95
New Load.LOAD50 Phases=1 Bus1=220.2 kV=0.23 kW=1 PF=0.95
New Load.LOAD51 Phases=1 Bus1=221.3 kV=0.23 kW=1 PF=0.95
New Load.LOAD52 Phases=1 Bus1=222.1 kV=0.23 kW=1 PF=0.95
New Load.LOAD53 Phases=1 Bus1=223.2 kV=0.23 kW=1 PF=0.95
New Load.LOAD54 Phases=1 Bus1=224.3 kV=0.23 kW=1 PF=0.95
New Load.LOAD55 Phases=1 Bus1=225.1 kV=0.23 kW=1 PF=0.95
New Load.LOAD56 Phases=1 Bus1=226.2 kV=0.23 kW=1 PF=0.95
New Load.LOAD57 Phases=1 Bus1=227.3 kV=0.23 kW=1 PF=0.95
New Load.LOAD58 Phases=1 Bus1=228.1 kV=0.23 kW=1 PF=0.95
New Load.LOAD59 Phases=1 Bus1=229.2 kV=0.23 kW=1 PF=0.95
New Load.LOAD60 Phases=1 Bus1=235.3 kV=0.23 kW=1 PF=0.95
New Load.LOAD61 Phases=1 Bus1=273.3 kV=0.23 kW=1 PF=0.95
New Load.LOAD62 Phases=1 Bus1=296.3 kV=0.23 kW=1 PF=0.95
New Load.LOAD63 Phases=1 Bus1=298.3 kV=0.23 kW=1 PF=0.95
New Load.LOAD64 Phases=1 Bus1=316.1 kV=0.23 kW=1 PF=0.95
New Load.LOAD65 Phases=1 Bus1=327.2 kV=0.23 kW=1 PF=0.95
New Load.LOAD66 Phases=1 Bus1=331.1 kV=0.23 kW=1 PF=0.95
New Load.LOAD67 Phases=1 Bus1=332.2 kV=0.23 kW=1 PF=0.95
New Load.LOAD68 Phases=1 Bus1=371.3 kV=0.23 kW=1 PF=0.95
New Load.LOAD69 Phases=1 Bus1=372.2 kV=0.23 kW=1 PF=0.95
New Load.LOAD70 Phases=1 Bus1=428.2 kV=0.23 kW=1 PF=0.95
New Load.LOAD71 Phases=1 Bus1=429.3 kV=0.23 kW=1 PF=0.95
New Load.LOAD72 Phases=1 Bus1=515.1 kV=0.23 kW=1 PF=0.95
New Load.LOAD73 Phases=1 Bus1=547.1 kV=0.23 kW=1 PF=0.95
New Load.LOAD74 Phases=1 Bus1=554.1 kV=0.23 kW=1 PF=0.95
New Load.LOAD75 Phases=1 Bus1=586.1 kV=0.23 kW=1 PF=0.95
New Load.LOAD76 Phases=1 Bus1=851.2 kV=0.23 kW=1 PF=0.95
New Load.LOAD77 Phases=1 Bus1=916.3 kV=0.23 kW=1 PF=0.95
New Load.LOAD78 Phases=1 Bus1=1066.2 kV=0.23 kW=1 PF=0.95
New Load.LOAD79 Phases=1 Bus1=1174.3 kV=0.23 kW=1 PF=0.95
New Load.LOAD80 Phases=1 Bus1=1251.1 kV=0.23 kW=1 PF=0.95
New Load.LOAD81 Phases=1 Bus1=1263.2 kV=0.23 kW=1 PF=0.95
New Load.LOAD82 Phases=1 Bus1=1328.3 kV=0.23 kW=1 PF=0.95
New Load.LOAD83 Phases=1 Bus1=1427.3 kV=0.23 kW=1 PF=0.95
New Load.LOAD84 Phases=1 Bus1=1448.1 kV=0.23 kW=1 PF=0.95
New Load.LOAD85 Phases=1 Bus1=1483.2 kV=0.23 kW=1 PF=0.95
New Load.LOAD86 Phases=1 Bus1=1545.2 kV=0.23 kW=1 PF=0.95
New Load.LOAD87 Phases=1 Bus1=1564.3 kV=0.23 kW=1 PF=0.95
New Load.LOAD88 Phases=1 Bus1=1646.1 kV=0.23 kW=1 PF=0.95
New Load.LOAD89 Phases=1 Bus1=1647.2 kV=0.23 kW=1 PF=0.95
New Load.LOAD90 Phases=1 Bus1=1655.2 kV=0.23 kW=1 PF=0.95
New Load.LOAD91 Phases=1 Bus1=1673.1 kV=0.23 kW=1 PF=0.95
New Load.LOAD92 Phases=1 Bus1=1679.3 kV=0.23 kW=1 PF=0.95
New Load.LOAD93 Phases=1 Bus1=1682.1 kV=0.23 kW=1 PF=0.95
New Load.LOAD94 Phases=1 Bus1=1723.3 kV=0.23 kW=1 PF=0.95
New Load.LOAD95 Phases=1 Bus1=1759.2 kV=0.23 kW=1 PF=0.95
New Load.LOAD96 Phases=1 Bus1=1762.2 kV=0.23 kW=1 PF=0.95
New Load.LOAD97 Phases=1 Bus1=1806.1 kV=0.23 kW=1 PF=0.95
New Load.LOAD98 Phases=1 Bus1=1840.1 kV=0.23 kW=1 PF=0.95
New Load.LOAD99 Phases=1 Bus1=1843.2 kV=0.23 kW=1 PF=0.95
New Load.LOAD100 Phases=1 Bus1=1859.3 kV=0.23 kW=1 PF=0.95
New Load.LOAD101 Phases=1 Bus1=1900.1 kV=0.23 kW=1 PF=0.95
New Load.LOAD102 Phases=1 Bus1=1905.3 kV=0.23 kW=1 PF=0.95
New Load.LOAD103 Phases=1 Bus1=1907.1 kV=0.23 kW=1 PF=0.95
New Load.LOAD104 Phases=1 Bus1=1961.1 kV=0.23 kW=1 PF=0.95
New Load.LOAD105 Phases=1 Bus1=1986.2 kV=0.23 kW=1 PF=0.95
New Load.LOAD106 Phases=1 Bus1=1999.3 kV=0.23 kW=1 PF=0.95
New Load.LOAD107 Phases=1 Bus1=2016.2 kV=0.23 kW=1 PF=0.95
New Load.LOAD108 Phases=1 Bus1=2075.2 kV=0.23 kW=1 PF=0.95
New Load.LOAD109 Phases=1 Bus1=2091.3 kV=0.23 kW=1 PF=0.95
New Load.LOAD110 Phases=1 Bus1=2119.2 kV=0.23 kW=1 PF=0.95
New Load.LOAD111 Phases=1 Bus1=2135.2 kV=0.23 kW=1 PF=0.95
New Load.LOAD112 Phases=1 Bus1=2172.1 kV=0.23 kW=1 PF=0.95
New Load.LOAD113 Phases=1 Bus1=2265.2 kV=0.23 kW=1 PF=0.95
New Load.LOAD114 Phases=1 Bus1=2282.2 kV=0.23 kW=1 PF=0.95
New Load.LOAD115 Phases=1 Bus1=2289.3 kV=0.23 kW=1 PF=0.95
New Load.LOAD116 Phases=1 Bus1=2290.1 kV=0.23 kW=1 PF=0.95
New Load.LOAD117 Phases=1 Bus1=2311.2 kV=0.23 kW=1 PF=0.95
New Load.LOAD118 Phases=1 Bus1=2318.1 kV=0.23 kW=1 PF=0.95
New Load.LOAD119 Phases=1 Bus1=2324.1 kV=0.23 kW=1 PF=0.95
New Load.LOAD120 Phases=1 Bus1=2366.3 kV=0.23 kW=1 PF=0.95
New Load.LOAD121 Phases=1 Bus1=2454.2 kV=0.23 kW=1 PF=0.95
New Load.LOAD122 Phases=1 Bus1=2465.2 kV=0.23 kW=1 PF=0.95
New Load.LOAD123 Phases=1 Bus1=2477.3 kV=0.23 kW=1 PF=0.95
New Load.LOAD124 Phases=1 Bus1=2511.3 kV=0.23 kW=1 PF=0.95
New Load.LOAD125 Phases=1 Bus1=2534.2 kV=0.23 kW=1 PF=0.95
New Load.LOAD126 Phases=1 Bus1=2555.2 kV=0.23 kW=1 PF=0.95
New Load.LOAD127 Phases=1 Bus1=2565.1 kV=0.23 kW=1 PF=0.95
New Load.LOAD128 Phases=1 Bus1=2591.3 kV=0.23 kW=1 PF=0.95
New Load.LOAD129 Phases=1 Bus1=2673.2 kV=0.23 kW=1 PF=0.95
New Load.LOAD130 Phases=1 Bus1=2675.3 kV=0.23 kW=1 PF=0.95
New Load.LOAD131 Phases=1 Bus1=2687.3 kV=0.23 kW=1 PF=0.95
New Load.LOAD132 Phases=1 Bus1=2693.1 kV=0.23 kW=1 PF=0.95
New Load.LOAD133 Phases=1 Bus1=2696.3 kV=0.23 kW=1 PF=0.95
New Load.LOAD134 Phases=1 Bus1=2709.1 kV=0.23 kW=1 PF=0.95
New Load.LOAD135 Phases=1 Bus1=2711.1 kV=0.23 kW=1 PF=0.95
New Load.LOAD136 Phases=1 Bus1=2736.3 kV=0.23 kW=1 PF=0.95
New Load.LOAD137 Phases=1 Bus1=2752.2 kV=0.23 kW=1 PF=0.95
New Load.LOAD138 Phases=1 Bus1=2754.2 kV=0.23 kW=1 PF=0.95
New Load.LOAD139 Phases=1 Bus1=2836.1 kV=0.23 kW=1 PF=0.95
New Load.LOAD140 Phases=1 Bus1=2857.3 kV=0.23 kW=1 PF=0.95
New Load.LOAD141 Phases=1 Bus1=2873.2 kV=0.23 kW=1 PF=0.95
New Load.LOAD142 Phases=1 Bus1=2891.2 kV=0.23 kW=1 PF=0.95
New Load.LOAD143 Phases=1 Bus1=2906.3 kV=0.23 kW=1 PF=0.95
New Load.LOAD144 Phases=1 Bus1=2914.1 kV=0.23 kW=1 PF=0.95
New Load.LOAD145 Phases=1 Bus1=2917.2 kV=0.23 kW=1 PF=0.95
New Load.LOAD146 Phases=1 Bus1=2979.1 kV=0.23 kW=1 PF=0.95
New Load.LOAD147 Phases=1 Bus1=3004.3 kV=0.23 kW=1 PF=0.95
New Load.LOAD148 Phases=1 Bus1=3026.1 kV=0.23 kW=1 PF=0.95
New Load.LOAD149 Phases=1 Bus1=3061.3 kV=0.23 kW=1 PF=0.95
New Load.LOAD150 Phases=1 Bus1=3070.3 kV=0.23 kW=1 PF=0.95
New Load.LOAD151 Phases=1 Bus1=3078.1 kV=0.23 kW=1 PF=0.95
New Load.LOAD152 Phases=1 Bus1=3086.2 kV=0.23 kW=1 PF=0.95
New Load.LOAD153 Phases=1 Bus1=3117.2 kV=0.23 kW=1 PF=0.95
New Load.LOAD154 Phases=1 Bus1=3138.2 kV=0.23 kW=1 PF=0.95
New Load.LOAD155 Phases=1 Bus1=3140.3 kV=0.23 kW=1 PF=0.95
New Load.LOAD156 Phases=1 Bus1=3153.2 kV=0.23 kW=1 PF=0.95
New Load.LOAD157 Phases=1 Bus1=3155.1 kV=0.23 kW=1 PF=0.95