New Load.LOAD1 Phases=1 Bus1=179.3 kV=0.23 kW=1 PF=0.95
New Load.LOAD2 Phases=1 Bus1=190.1 kV=0.23 kW=1 PF=0.95
New Load.LOAD3 Phases=1 Bus1=206.2 kV=0.23 kW=1 PF=0.95
New Load.LOAD4 Phases=1 Bus1=212.3 kV=0.23 kW=1 PF=0.95
New Load.LOAD5 Phases=1 Bus1=241.1 kV=0.23 kW=1 PF=0.95
New Load.LOAD6 Phases=1 Bus1=302.2 kV=0.23 kW=1 PF=0.95
New Load.LOAD7 Phases=1 Bus1=319.1 kV=0.23 kW=1 PF=0.95
New Load.LOAD8 Phases=1 Bus1=323.3 kV=0.23 kW=1 PF=0.95
New Load.LOAD9 Phases=1 Bus1=324.1 kV=0.23 kW=1 PF=0.95
New Load.LOAD10 Phases=1 Bus1=325.1 kV=0.23 kW=1 PF=0.95
New Load.LOAD11 Phases=1 Bus1=326.1 kV=0.23 kW=1 PF=0.95
New Load.LOAD12 Phases=1 Bus1=327.1 kV=0.23 kW=1 PF=0.95
New Load.LOAD13 Phases=1 Bus1=328.1 kV=0.23 kW=1 PF=0.95
New Load.LOAD14 Phases=1 Bus1=329.1 kV=0.23 kW=1 PF=0.95
New Load.LOAD15 Phases=1 Bus1=330.1 kV=0.23 kW=1 PF=0.95
New Load.LOAD16 Phases=1 Bus1=331.1 kV=0.23 kW=1 PF=0.95
New Load.LOAD17 Phases=1 Bus1=332.1 kV=0.23 kW=1 PF=0.95
New Load.LOAD18 Phases=1 Bus1=333.1 kV=0.23 kW=1 PF=0.95
New Load.LOAD19 Phases=1 Bus1=334.1 kV=0.23 kW=1 PF=0.95
New Load.LOAD20 Phases=1 Bus1=335.1 kV=0.23 kW=1 PF=0.95
New Load.LOAD21 Phases=1 Bus1=336.1 kV=0.23 kW=1 PF=0.95
New Load.LOAD22 Phases=1 Bus1=337.1 kV=0.23 kW=1 PF=0.95
New Load.LOAD23 Phases=1 Bus1=338.1 kV=0.23 kW=1 PF=0.95
New Load.LOAD24 Phases=1 Bus1=339.1 kV=0.23 kW=1 PF=0.95
New Load.LOAD25 Phases=1 Bus1=340.1 kV=0.23 kW=1 PF=0.95
New Load.LOAD26 Phases=1 Bus1=341.1 kV=0.23 kW=1 PF=0.95
New Load.LOAD27 Phases=1 Bus1=342.1 kV=0.23 kW=1 PF=0.95
New Load.LOAD28 Phases=1 Bus1=343.1 kV=0.23 kW=1 PF=0.95
New Load.LOAD29 Phases=1 Bus1=344.1 kV=0.23 kW=1 PF=0.95
New Load.LOAD30 Phases=1 Bus1=345.1 kV=0.23 kW=1 PF=0.95
New Load.LOAD31 Phases=1 Bus1=346.1 kV=0.23 kW=1 PF=0.95
New Load.LOAD32 Phases=1 Bus1=347.1 kV=0.23 kW=1 PF=0.95
New Load.LOAD33 Phases=1 Bus1=348.1 kV=0.23 kW=1 PF=0.95
New Load.LOAD34 Phases=1 Bus1=349.1 kV=0.23 kW=1 PF=0.95
New Load.LOAD35 Phases=1 Bus1=363.2 kV=0.23 kW=1 PF=0.95
New Load.LOAD36 Phases=1 Bus1=382.1 kV=0.23 kW=1 PF=0.95
New Load.LOAD37 Phases=1 Bus1=403.3 kV=0.23 kW=1 PF=0.95
New Load.LOAD38 Phases=1 Bus1=471.3 kV=0.23 kW=1 PF=0.95
New Load.LOAD39 Phases=1 Bus1=490.1 kV=0.23 kW=1 PF=0.95
New Load.LOAD40 Phases=1 Bus1=500.2 kV=0.23 kW=1 PF=0.95
New Load.LOAD41 Phases=1 Bus1=512.3 kV=0.23 kW=1 PF=0.95
New Load.LOAD42 Phases=1 Bus1=514.2 kV=0.23 kW=1 PF=0.95
New Load.LOAD43 Phases=1 Bus1=524.2 kV=0.23 kW=1 PF=0.95
New Load.LOAD44 Phases=1 Bus1=532.1 kV=0.23 kW=1 PF=0.95
New Load.LOAD45 Phases=1 Bus1=579.1 kV=0.23 kW=1 PF=0.95
New Load.LOAD46 Phases=1 Bus1=602.2 kV=0.23 kW=1 PF=0.95
New Load.LOAD47 Phases=1 Bus1=618.3 kV=0.23 kW=1 PF=0.95
New Load.LOAD48 Phases=1 Bus1=646.3 kV=0.23 kW=1 PF=0.95
New Load.LOAD49 Phases=1 Bus1=659.2 kV=0.23 kW=1 PF=0.95
New Load.LOAD50 Phases=1 Bus1=670.1 kV=0.23 kW=1 PF=0.95
New Load.LOAD51 Phases=1 Bus1=684.2 kV=0.23 kW=1 PF=0.95
New Load.LOAD52 Phases=1 Bus1=687.2 kV=0.23 kW=1 PF=0.95
New Load.LOAD53 Phases=1 Bus1=758.3 kV=0.23 kW=1 PF=0.95
New Load.LOAD54 Phases=1 Bus1=760.2 kV=0.23 kW=1 PF=0.95
New Load.LOAD55 Phases=1 Bus1=788.1 kV=0.23 kW=1 PF=0.95
New Load.LOAD56 Phases=1 Bus1=794.2 kV=0.23 kW=1 PF=0.95
New Load.LOAD57 Phases=1 Bus1=816.2 kV=0.23 kW=1 PF=0.95
New Load.LOAD58 Phases=1 Bus1=820.1 kV=0.23 kW=1 PF=0.95
New Load.LOAD59 Phases=1 Bus1=834.1 kV=0.23 kW=1 PF=0.95