New Load.LOAD1 Phases=1 Bus1=77.1 kV=0.23 kW=1 PF=0.95
New Load.LOAD2 Phases=1 Bus1=78.2 kV=0.23 kW=1 PF=0.95
New Load.LOAD3 Phases=1 Bus1=479.3 kV=0.23 kW=1 PF=0.95
New Load.LOAD4 Phases=1 Bus1=609.2 kV=0.23 kW=1 PF=0.95
New Load.LOAD5 Phases=1 Bus1=610.2 kV=0.23 kW=1 PF=0.95
New Load.LOAD6 Phases=1 Bus1=612.1 kV=0.23 kW=1 PF=0.95
New Load.LOAD7 Phases=1 Bus1=613.1 kV=0.23 kW=1 PF=0.95
New Load.LOAD8 Phases=1 Bus1=632.1 kV=0.23 kW=1 PF=0.95
New Load.LOAD9 Phases=1 Bus1=633.2 kV=0.23 kW=1 PF=0.95
New Load.LOAD10 Phases=1 Bus1=634.3 kV=0.23 kW=1 PF=0.95
New Load.LOAD11 Phases=1 Bus1=635.1 kV=0.23 kW=1 PF=0.95
New Load.LOAD12 Phases=1 Bus1=636.2 kV=0.23 kW=1 PF=0.95
New Load.LOAD13 Phases=1 Bus1=670.1 kV=0.23 kW=1 PF=0.95
New Load.LOAD14 Phases=1 Bus1=687.1 kV=0.23 kW=1 PF=0.95
New Load.LOAD15 Phases=1 Bus1=688.1 kV=0.23 kW=1 PF=0.95
New Load.LOAD16 Phases=1 Bus1=689.1 kV=0.23 kW=1 PF=0.95
New Load.LOAD17 Phases=1 Bus1=748.2 kV=0.23 kW=1 PF=0.95
New Load.LOAD18 Phases=1 Bus1=766.2 kV=0.23 kW=1 PF=0.95
New Load.LOAD19 Phases=1 Bus1=767.2 kV=0.23 kW=1 PF=0.95
New Load.LOAD20 Phases=1 Bus1=768.2 kV=0.23 kW=1 PF=0.95
New Load.LOAD21 Phases=1 Bus1=812.2 kV=0.23 kW=1 PF=0.95
New Load.LOAD22 Phases=1 Bus1=813.2 kV=0.23 kW=1 PF=0.95
New Load.LOAD23 Phases=1 Bus1=828.2 kV=0.23 kW=1 PF=0.95
New Load.LOAD24 Phases=1 Bus1=829.2 kV=0.23 kW=1 PF=0.95
New Load.LOAD25 Phases=1 Bus1=842.1 kV=0.23 kW=1 PF=0.95
New Load.LOAD26 Phases=1 Bus1=855.3 kV=0.23 kW=1 PF=0.95
New Load.LOAD27 Phases=1 Bus1=864.3 kV=0.23 kW=1 PF=0.95
New Load.LOAD28 Phases=1 Bus1=961.3 kV=0.23 kW=1 PF=0.95
New Load.LOAD29 Phases=1 Bus1=962.3 kV=0.23 kW=1 PF=0.95
New Load.LOAD30 Phases=1 Bus1=967.3 kV=0.23 kW=1 PF=0.95
New Load.LOAD31 Phases=1 Bus1=972.3 kV=0.23 kW=1 PF=0.95
New Load.LOAD32 Phases=1 Bus1=973.3 kV=0.23 kW=1 PF=0.95
New Load.LOAD33 Phases=1 Bus1=974.3 kV=0.23 kW=1 PF=0.95
New Load.LOAD34 Phases=1 Bus1=976.3 kV=0.23 kW=1 PF=0.95
New Load.LOAD35 Phases=1 Bus1=995.1 kV=0.23 kW=1 PF=0.95
New Load.LOAD36 Phases=1 Bus1=1000.1 kV=0.23 kW=1 PF=0.95
New Load.LOAD37 Phases=1 Bus1=1012.2 kV=0.23 kW=1 PF=0.95
New Load.LOAD38 Phases=1 Bus1=1024.3 kV=0.23 kW=1 PF=0.95
New Load.LOAD39 Phases=1 Bus1=1036.3 kV=0.23 kW=1 PF=0.95
New Load.LOAD40 Phases=1 Bus1=1040.3 kV=0.23 kW=1 PF=0.95
New Load.LOAD41 Phases=1 Bus1=1044.1 kV=0.23 kW=1 PF=0.95
New Load.LOAD42 Phases=1 Bus1=1051.2 kV=0.23 kW=1 PF=0.95
New Load.LOAD43 Phases=1 Bus1=1074.3 kV=0.23 kW=1 PF=0.95
New Load.LOAD44 Phases=1 Bus1=1079.3 kV=0.23 kW=1 PF=0.95
New Load.LOAD45 Phases=1 Bus1=1106.1 kV=0.23 kW=1 PF=0.95
New Load.LOAD46 Phases=1 Bus1=1110.3 kV=0.23 kW=1 PF=0.95