New Line.LINE1 Bus1=1 Bus2=2 phases=3 Linecode=3c_240_SAC_XC Length=0.42659 Units=m
New Line.LINE2 Bus1=2 Bus2=3 phases=3 Linecode=3c_240_SAC_XC Length=0.11951 Units=m
New Line.LINE3 Bus1=3 Bus2=4 phases=3 Linecode=3c_240_SAC_XC Length=0.179 Units=m
New Line.LINE4 Bus1=4 Bus2=5 phases=3 Linecode=3c_240_SAC_XC Length=0.081835 Units=m
New Line.LINE5 Bus1=5 Bus2=6 phases=3 Linecode=3c_240_SAC_XC Length=0.090917 Units=m
New Line.LINE6 Bus1=6 Bus2=7 phases=3 Linecode=3c_240_SAC_XC Length=0.3653 Units=m
New Line.LINE7 Bus1=7 Bus2=8 phases=3 Linecode=3c_240_SAC_XC Length=0.10296 Units=m
New Line.LINE8 Bus1=8 Bus2=9 phases=3 Linecode=3c_240_SAC_XC Length=0.128 Units=m
New Line.LINE9 Bus1=9 Bus2=10 phases=3 Linecode=3c_240_SAC_XC Length=0.11846 Units=m
New Line.LINE10 Bus1=10 Bus2=11 phases=3 Linecode=3c_240_SAC_XC Length=0.087921 Units=m
New Line.LINE11 Bus1=11 Bus2=12 phases=3 Linecode=3c_240_SAC_XC Length=0.039202 Units=m
New Line.LINE12 Bus1=12 Bus2=13 phases=3 Linecode=3c_240_SAC_XC Length=0.072471 Units=m
New Line.LINE13 Bus1=13 Bus2=14 phases=3 Linecode=3c_240_SAC_XC Length=0.087802 Units=m
New Line.LINE14 Bus1=14 Bus2=15 phases=3 Linecode=3c_240_SAC_XC Length=1.3423 Units=m
New Line.LINE15 Bus1=15 Bus2=16 phases=3 Linecode=3c_240_SAC_XC Length=0.18439 Units=m
New Line.LINE16 Bus1=16 Bus2=17 phases=3 Linecode=3c_240_SAC_XC Length=0.121 Units=m
New Line.LINE17 Bus1=17 Bus2=18 phases=3 Linecode=3c_240_SAC_XC Length=0.18439 Units=m
New Line.LINE18 Bus1=18 Bus2=19 phases=3 Linecode=3c_240_SAC_XC Length=4.6526 Units=m
New Line.LINE19 Bus1=19 Bus2=20 phases=3 Linecode=3c_240_SAC_XC Length=0.59983 Units=m
New Line.LINE20 Bus1=20 Bus2=21 phases=3 Linecode=3c_240_SAC_XC Length=8.4818 Units=m
New Line.LINE21 Bus1=21 Bus2=22 phases=3 Linecode=3c_240_SAC_XC Length=7.1272 Units=m
New Line.LINE22 Bus1=22 Bus2=23 phases=3 Linecode=3c_240_SAC_XC Length=4.8311 Units=m
New Line.LINE23 Bus1=23 Bus2=24 phases=3 Linecode=3c_240_SAC_XC Length=0.25434 Units=m
New Line.LINE24 Bus1=24 Bus2=25 phases=3 Linecode=3c_240_SAC_XC Length=2.8214 Units=m
New Line.LINE25 Bus1=25 Bus2=26 phases=3 Linecode=3c_240_SAC_XC Length=0.17452 Units=m
New Line.LINE26 Bus1=26 Bus2=27 phases=3 Linecode=3c_240_SAC_XC Length=0.092999 Units=m
New Line.LINE27 Bus1=27 Bus2=28 phases=3 Linecode=3c_240_SAC_XC Length=0.13852 Units=m
New Line.LINE28 Bus1=28 Bus2=29 phases=3 Linecode=3c_240_SAC_XC Length=0.172 Units=m
New Line.LINE29 Bus1=29 Bus2=30 phases=3 Linecode=3c_240_SAC_XC Length=0.18112 Units=m
New Line.LINE30 Bus1=30 Bus2=31 phases=3 Linecode=3c_240_SAC_XC Length=0.894 Units=m
New Line.LINE31 Bus1=31 Bus2=32 phases=3 Linecode=3c_240_SAC_XC Length=0.18828 Units=m
New Line.LINE32 Bus1=32 Bus2=33 phases=3 Linecode=3c_240_SAC_XC Length=0.1064 Units=m
New Line.LINE33 Bus1=33 Bus2=34 phases=3 Linecode=3c_240_SAC_XC Length=0.12386 Units=m
New Line.LINE34 Bus1=34 Bus2=35 phases=3 Linecode=3c_240_SAC_XC Length=0.19731 Units=m
New Line.LINE35 Bus1=35 Bus2=36 phases=3 Linecode=3c_240_SAC_XC Length=0.96363 Units=m
New Line.LINE36 Bus1=36 Bus2=37 phases=3 Linecode=3c_240_SAC_XC Length=0.23131 Units=m
New Line.LINE37 Bus1=37 Bus2=38 phases=3 Linecode=3c_240_SAC_XC Length=0.50672 Units=m
New Line.LINE38 Bus1=38 Bus2=39 phases=3 Linecode=4c_.3_AS Length=0.365 Units=m
New Line.LINE39 Bus1=39 Bus2=40 phases=3 Linecode=4c_.3_AS Length=9.0537 Units=m
New Line.LINE40 Bus1=40 Bus2=41 phases=3 Linecode=4c_.3_AS Length=5.2677 Units=m
New Line.LINE41 Bus1=41 Bus2=42 phases=3 Linecode=4c_.3_SAC Length=5.0522 Units=m
New Line.LINE42 Bus1=42 Bus2=43 phases=3 Linecode=4c_.3_SAC Length=0.77666 Units=m
New Line.LINE43 Bus1=43 Bus2=44 phases=3 Linecode=4c_.3_SAC Length=0.5566 Units=m
New Line.LINE44 Bus1=44 Bus2=45 phases=3 Linecode=4c_.3_SAC Length=0.37802 Units=m
New Line.LINE45 Bus1=45 Bus2=46 phases=3 Linecode=4c_.3_SAC Length=0.88238 Units=m
New Line.LINE46 Bus1=46 Bus2=47 phases=3 Linecode=4c_.1_SAC Length=1.1045 Units=m
New Line.LINE47 Bus1=46 Bus2=48 phases=3 Linecode=4c_.1_SAC Length=1.0021 Units=m
New Line.LINE48 Bus1=47 Bus2=49 phases=3 Linecode=4c_.1_SAC Length=6.0349 Units=m
New Line.LINE49 Bus1=48 Bus2=50 phases=3 Linecode=4c_.1_SAC Length=0.77897 Units=m
New Line.LINE50 Bus1=49 Bus2=51 phases=3 Linecode=4c_.3_SAC Length=8.3726 Units=m
New Line.LINE51 Bus1=49 Bus2=52 phases=3 Linecode=4c_.3_SAC Length=0.51196 Units=m
New Line.LINE52 Bus1=50 Bus2=53 phases=3 Linecode=4c_.1_SAC Length=0.55471 Units=m
New Line.LINE53 Bus1=51 Bus2=54 phases=3 Linecode=4c_.3_SAC Length=0.30414 Units=m
New Line.LINE54 Bus1=52 Bus2=55 phases=3 Linecode=4c_.3_SAC Length=0.27659 Units=m
New Line.LINE55 Bus1=53 Bus2=56 phases=3 Linecode=4c_.1_SAC Length=0.37577 Units=m
New Line.LINE56 Bus1=54 Bus2=57 phases=3 Linecode=4c_185_SAC_XC Length=0.21401 Units=m
New Line.LINE57 Bus1=55 Bus2=58 phases=3 Linecode=4c_.3_SAC Length=1.8048 Units=m
New Line.LINE58 Bus1=56 Bus2=59 phases=3 Linecode=4c_.1_SAC Length=1.2366 Units=m
New Line.LINE59 Bus1=57 Bus2=60 phases=3 Linecode=4c_185_SAC_XC Length=0.614 Units=m
New Line.LINE60 Bus1=58 Bus2=61 phases=3 Linecode=4c_.3_SAC Length=0.59414 Units=m
New Line.LINE61 Bus1=59 Bus2=62 phases=3 Linecode=4c_.1_SAC Length=1.1498 Units=m
New Line.LINE62 Bus1=60 Bus2=63 phases=3 Linecode=4c_185_SAC_XC Length=0.61911 Units=m
New Line.LINE63 Bus1=61 Bus2=64 phases=3 Linecode=4c_.3_SAC Length=0.73573 Units=m
New Line.LINE64 Bus1=62 Bus2=65 phases=3 Linecode=4c_.1_SAC Length=0.71847 Units=m
New Line.LINE65 Bus1=63 Bus2=66 phases=3 Linecode=4c_185_SAC_XC Length=0.4993 Units=m
New Line.LINE66 Bus1=64 Bus2=67 phases=3 Linecode=4c_.3_SAC Length=0.51624 Units=m
New Line.LINE67 Bus1=65 Bus2=68 phases=3 Linecode=4c_.1_SAC Length=1.1815 Units=m
New Line.LINE68 Bus1=66 Bus2=69 phases=3 Linecode=4c_185_SAC_XC Length=0.49578 Units=m
New Line.LINE69 Bus1=67 Bus2=70 phases=3 Linecode=4c_.3_SAC Length=5.4103 Units=m
New Line.LINE70 Bus1=68 Bus2=71 phases=3 Linecode=4c_.1_SAC Length=1.1842 Units=m
New Line.LINE71 Bus1=69 Bus2=72 phases=3 Linecode=4c_185_SAC_XC Length=0.89872 Units=m
New Line.LINE72 Bus1=70 Bus2=73 phases=3 Linecode=4c_.3_SAC Length=0.76408 Units=m
New Line.LINE73 Bus1=71 Bus2=74 phases=3 Linecode=4c_.1_SAC Length=1.3121 Units=m
New Line.LINE74 Bus1=72 Bus2=75 phases=3 Linecode=2c_.04 Length=0.37576 Units=m
New Line.LINE75 Bus1=72 Bus2=76 phases=3 Linecode=4c_.06_AS Length=5.4519 Units=m
New Line.LINE76 Bus1=73 Bus2=77 phases=3 Linecode=4c_.3_SAC Length=0.27203 Units=m
New Line.LINE77 Bus1=74 Bus2=78 phases=3 Linecode=4c_.1_SAC Length=4.0344 Units=m
New Line.LINE78 Bus1=74 Bus2=79 phases=3 Linecode=2c_.0225 Length=0.59076 Units=m
New Line.LINE79 Bus1=75 Bus2=80 phases=3 Linecode=2c_.04 Length=0.686 Units=m
New Line.LINE80 Bus1=76 Bus2=81 phases=3 Linecode=4c_.06_AS Length=1.2176 Units=m
New Line.LINE81 Bus1=77 Bus2=82 phases=3 Linecode=4c_.3_SAC Length=0.22136 Units=m
New Line.LINE82 Bus1=78 Bus2=83 phases=3 Linecode=4c_.1_SAC Length=8.3714 Units=m
New Line.LINE83 Bus1=78 Bus2=84 phases=3 Linecode=2c_.007 Length=1.9355 Units=m
New Line.LINE84 Bus1=79 Bus2=85 phases=3 Linecode=2c_.0225 Length=0.20591 Units=m
New Line.LINE85 Bus1=80 Bus2=86 phases=3 Linecode=2c_.04 Length=0.68681 Units=m
New Line.LINE86 Bus1=81 Bus2=87 phases=3 Linecode=4c_.06_AS Length=1.4625 Units=m
New Line.LINE87 Bus1=82 Bus2=88 phases=3 Linecode=4c_.3_SAC Length=0.25942 Units=m
New Line.LINE88 Bus1=83 Bus2=89 phases=3 Linecode=4c_.1_SAC Length=2.5818 Units=m
New Line.LINE89 Bus1=84 Bus2=90 phases=3 Linecode=4_XSC Length=0.33242 Units=m
New Line.LINE90 Bus1=85 Bus2=91 phases=3 Linecode=2c_.0225 Length=0.26627 Units=m
New Line.LINE91 Bus1=86 Bus2=92 phases=3 Linecode=2c_.04 Length=0.69202 Units=m
New Line.LINE92 Bus1=87 Bus2=93 phases=3 Linecode=4c_.06_AS Length=0.97745 Units=m
New Line.LINE93 Bus1=88 Bus2=94 phases=3 Linecode=4c_.3_SAC Length=3.3663 Units=m
New Line.LINE94 Bus1=89 Bus2=95 phases=3 Linecode=4c_.1_SAC Length=5.2376 Units=m
New Line.LINE95 Bus1=89 Bus2=96 phases=3 Linecode=2c_.0225 Length=0.27018 Units=m
New Line.LINE96 Bus1=90 Bus2=97 phases=3 Linecode=4_XSC Length=0.089443 Units=m
New Line.LINE97 Bus1=91 Bus2=98 phases=3 Linecode=2c_.0225 Length=6.166 Units=m
New Line.LINE98 Bus1=92 Bus2=99 phases=3 Linecode=2c_.04 Length=1.1021 Units=m
New Line.LINE99 Bus1=93 Bus2=100 phases=3 Linecode=4c_.06_AS Length=1.5516 Units=m
New Line.LINE100 Bus1=94 Bus2=101 phases=3 Linecode=4c_.3_SAC Length=4.4126 Units=m
New Line.LINE101 Bus1=95 Bus2=102 phases=3 Linecode=4c_.1_SAC Length=2.5622 Units=m
New Line.LINE102 Bus1=96 Bus2=103 phases=3 Linecode=2c_.0225 Length=0.24352 Units=m
New Line.LINE103 Bus1=97 Bus2=104 phases=3 Linecode=4_XSC Length=0.1 Units=m
New Line.LINE104 Bus1=98 Bus2=105 phases=3 Linecode=2c_.0225 Length=7.9398 Units=m
New Line.LINE105 Bus1=99 Bus2=106 phases=3 Linecode=2c_.04 Length=0.85796 Units=m
New Line.LINE106 Bus1=100 Bus2=107 phases=3 Linecode=4c_.06_AS Length=18.0452 Units=m
New Line.LINE107 Bus1=101 Bus2=108 phases=3 Linecode=4c_.3_SAC Length=1.6759 Units=m
New Line.LINE108 Bus1=101 Bus2=109 phases=3 Linecode=2c_.04 Length=0.4272 Units=m
New Line.LINE109 Bus1=102 Bus2=110 phases=3 Linecode=4c_.1_SAC Length=2.4103 Units=m
New Line.LINE110 Bus1=103 Bus2=111 phases=3 Linecode=2c_.0225 Length=0.47042 Units=m
New Line.LINE111 Bus1=104 Bus2=112 phases=3 Linecode=4_XSC Length=0.1063 Units=m
New Line.LINE112 Bus1=106 Bus2=113 phases=3 Linecode=2c_.04 Length=0.29155 Units=m
New Line.LINE113 Bus1=107 Bus2=114 phases=3 Linecode=2c_.04 Length=6.61 Units=m
New Line.LINE114 Bus1=107 Bus2=115 phases=3 Linecode=4c_.06_AS Length=14.9257 Units=m
New Line.LINE115 Bus1=108 Bus2=116 phases=3 Linecode=4c_.06_AS Length=1.6194 Units=m
New Line.LINE116 Bus1=109 Bus2=117 phases=3 Linecode=2c_.04 Length=0.27203 Units=m
New Line.LINE117 Bus1=110 Bus2=118 phases=3 Linecode=4c_.1_SAC Length=0.40012 Units=m
New Line.LINE118 Bus1=111 Bus2=119 phases=3 Linecode=2c_.0225 Length=8.449 Units=m
New Line.LINE119 Bus1=112 Bus2=120 phases=3 Linecode=4_XSC Length=0.094342 Units=m
New Line.LINE120 Bus1=113 Bus2=121 phases=3 Linecode=2c_.04 Length=0.2326 Units=m
New Line.LINE121 Bus1=114 Bus2=122 phases=3 Linecode=.04_LTC Length=4.6668 Units=m
New Line.LINE122 Bus1=114 Bus2=123 phases=3 Linecode=2c_.04 Length=12.5743 Units=m
New Line.LINE123 Bus1=115 Bus2=124 phases=3 Linecode=4c_.06_AS Length=0.35017 Units=m
New Line.LINE124 Bus1=115 Bus2=125 phases=3 Linecode=4c_.06_AS Length=2.6679 Units=m
New Line.LINE125 Bus1=116 Bus2=126 phases=3 Linecode=2c_.007 Length=0.39205 Units=m
New Line.LINE126 Bus1=116 Bus2=127 phases=3 Linecode=4c_.06_AS Length=3.6489 Units=m
New Line.LINE127 Bus1=117 Bus2=128 phases=3 Linecode=2c_.04 Length=0.47708 Units=m
New Line.LINE128 Bus1=118 Bus2=129 phases=3 Linecode=4c_.1_SAC Length=0.79246 Units=m
New Line.LINE129 Bus1=119 Bus2=130 phases=3 Linecode=2c_.0225 Length=0.31 Units=m
New Line.LINE130 Bus1=121 Bus2=131 phases=3 Linecode=2c_.04 Length=0.19 Units=m
New Line.LINE131 Bus1=122 Bus2=132 phases=3 Linecode=.04_LTC Length=3.1171 Units=m
New Line.LINE132 Bus1=124 Bus2=133 phases=3 Linecode=4c_.06_AS Length=0.24331 Units=m
New Line.LINE133 Bus1=125 Bus2=134 phases=3 Linecode=4c_.06_AS Length=9.2771 Units=m
New Line.LINE134 Bus1=125 Bus2=135 phases=3 Linecode=.04_LTC Length=5.6547 Units=m
New Line.LINE135 Bus1=126 Bus2=136 phases=3 Linecode=2c_.007 Length=0.15 Units=m
New Line.LINE136 Bus1=127 Bus2=137 phases=3 Linecode=.04_LTC Length=7.7119 Units=m
New Line.LINE137 Bus1=127 Bus2=138 phases=3 Linecode=4c_.06_AS Length=12.0727 Units=m
New Line.LINE138 Bus1=128 Bus2=139 phases=3 Linecode=2c_.04 Length=0.45695 Units=m
New Line.LINE139 Bus1=129 Bus2=140 phases=3 Linecode=4c_.1_SAC Length=1.1763 Units=m
New Line.LINE140 Bus1=130 Bus2=141 phases=3 Linecode=2c_.0225 Length=0.33971 Units=m
New Line.LINE141 Bus1=131 Bus2=142 phases=3 Linecode=2c_.04 Length=0.19313 Units=m
New Line.LINE142 Bus1=133 Bus2=143 phases=3 Linecode=4c_.06_AS Length=0.24352 Units=m
New Line.LINE143 Bus1=134 Bus2=144 phases=3 Linecode=4c_.06_AS Length=3.4705 Units=m
New Line.LINE144 Bus1=134 Bus2=145 phases=3 Linecode=.04_LTC Length=6.6602 Units=m
New Line.LINE145 Bus1=135 Bus2=146 phases=3 Linecode=.04_LTC Length=0.98681 Units=m
New Line.LINE146 Bus1=136 Bus2=147 phases=3 Linecode=2c_.007 Length=0.18868 Units=m
New Line.LINE147 Bus1=137 Bus2=148 phases=3 Linecode=.04_LTC Length=5.776 Units=m
New Line.LINE148 Bus1=138 Bus2=149 phases=3 Linecode=2c_.04 Length=6.6948 Units=m
New Line.LINE149 Bus1=138 Bus2=150 phases=3 Linecode=4c_.06_AS Length=1.6364 Units=m
New Line.LINE150 Bus1=139 Bus2=151 phases=3 Linecode=2c_.04 Length=0.29069 Units=m
New Line.LINE151 Bus1=140 Bus2=152 phases=3 Linecode=2c_.0225 Length=0.44204 Units=m
New Line.LINE152 Bus1=140 Bus2=153 phases=3 Linecode=4c_.1_SAC Length=0.83259 Units=m
New Line.LINE153 Bus1=141 Bus2=154 phases=3 Linecode=2c_.0225 Length=0.47508 Units=m
New Line.LINE154 Bus1=142 Bus2=155 phases=3 Linecode=2c_.04 Length=0.15 Units=m
New Line.LINE155 Bus1=143 Bus2=156 phases=3 Linecode=4c_.06_AS Length=0.25298 Units=m
New Line.LINE156 Bus1=144 Bus2=157 phases=3 Linecode=4c_.06_AS Length=5.8216 Units=m
New Line.LINE157 Bus1=145 Bus2=158 phases=3 Linecode=.04_LTC Length=2.6654 Units=m
New Line.LINE158 Bus1=145 Bus2=159 phases=3 Linecode=2c_.04 Length=12.56 Units=m
New Line.LINE159 Bus1=146 Bus2=160 phases=3 Linecode=.04_LTC Length=4.8009 Units=m
New Line.LINE160 Bus1=146 Bus2=161 phases=3 Linecode=16_PSC Length=12.4843 Units=m
New Line.LINE161 Bus1=147 Bus2=162 phases=3 Linecode=4_XSC Length=0.3346 Units=m
New Line.LINE162 Bus1=149 Bus2=163 phases=3 Linecode=2c_.04 Length=0.95776 Units=m
New Line.LINE163 Bus1=149 Bus2=164 phases=3 Linecode=2c_.04 Length=9.5477 Units=m
New Line.LINE164 Bus1=150 Bus2=165 phases=3 Linecode=4c_.06_AS Length=1.1587 Units=m
New Line.LINE165 Bus1=151 Bus2=166 phases=3 Linecode=2c_.04 Length=0.43382 Units=m
New Line.LINE166 Bus1=152 Bus2=167 phases=3 Linecode=2c_.0225 Length=0.33616 Units=m
New Line.LINE167 Bus1=153 Bus2=168 phases=3 Linecode=4c_.1_SAC Length=0.71344 Units=m
New Line.LINE168 Bus1=154 Bus2=169 phases=3 Linecode=2c_.0225 Length=0.53451 Units=m
New Line.LINE169 Bus1=155 Bus2=170 phases=3 Linecode=2c_.04 Length=0.22847 Units=m
New Line.LINE170 Bus1=156 Bus2=171 phases=3 Linecode=4c_.06_AS Length=0.25318 Units=m
New Line.LINE171 Bus1=157 Bus2=172 phases=3 Linecode=4c_.06_AS Length=8.8508 Units=m
New Line.LINE172 Bus1=158 Bus2=173 phases=3 Linecode=.04_LTC Length=1.9232 Units=m
New Line.LINE173 Bus1=160 Bus2=174 phases=3 Linecode=.04_LTC Length=2.4622 Units=m
New Line.LINE174 Bus1=162 Bus2=175 phases=3 Linecode=4_XSC Length=0.33979 Units=m
New Line.LINE175 Bus1=163 Bus2=176 phases=3 Linecode=2c_.04 Length=1.127 Units=m
New Line.LINE176 Bus1=165 Bus2=177 phases=3 Linecode=4c_.06_AS Length=1.1136 Units=m
New Line.LINE177 Bus1=166 Bus2=178 phases=3 Linecode=2c_.04 Length=0.38588 Units=m
New Line.LINE178 Bus1=167 Bus2=179 phases=3 Linecode=2c_.0225 Length=0.34482 Units=m
New Line.LINE179 Bus1=168 Bus2=180 phases=3 Linecode=2c_.0225 Length=0.22472 Units=m
New Line.LINE180 Bus1=168 Bus2=181 phases=3 Linecode=4c_.1_SAC Length=1.3905 Units=m
New Line.LINE181 Bus1=169 Bus2=182 phases=3 Linecode=2c_.0225 Length=0.34132 Units=m
New Line.LINE182 Bus1=170 Bus2=183 phases=3 Linecode=2c_.04 Length=7.1576 Units=m
New Line.LINE183 Bus1=171 Bus2=184 phases=3 Linecode=4c_.06_AS Length=0.25 Units=m
New Line.LINE184 Bus1=172 Bus2=185 phases=3 Linecode=4c_.06_AS Length=7.7539 Units=m
New Line.LINE185 Bus1=172 Bus2=186 phases=3 Linecode=2c_.04 Length=6.995 Units=m
New Line.LINE186 Bus1=173 Bus2=187 phases=3 Linecode=.04_LTC Length=2.7771 Units=m
New Line.LINE187 Bus1=174 Bus2=188 phases=3 Linecode=.04_LTC Length=8.287 Units=m
New Line.LINE188 Bus1=175 Bus2=189 phases=3 Linecode=4_XSC Length=0.036056 Units=m
New Line.LINE189 Bus1=176 Bus2=190 phases=3 Linecode=2c_.04 Length=7.4079 Units=m
New Line.LINE190 Bus1=177 Bus2=191 phases=3 Linecode=4c_.06_AS Length=1.3297 Units=m
New Line.LINE191 Bus1=178 Bus2=192 phases=3 Linecode=2c_.04 Length=5.2311 Units=m
New Line.LINE192 Bus1=179 Bus2=193 phases=3 Linecode=2c_.0225 Length=0.24021 Units=m
New Line.LINE193 Bus1=180 Bus2=194 phases=3 Linecode=2c_.0225 Length=0.2377 Units=m
New Line.LINE194 Bus1=181 Bus2=195 phases=3 Linecode=4c_.1_SAC Length=0.88617 Units=m
New Line.LINE195 Bus1=182 Bus2=196 phases=3 Linecode=2c_.0225 Length=3.1197 Units=m
New Line.LINE196 Bus1=183 Bus2=197 phases=3 Linecode=2c_.04 Length=6.0629 Units=m
New Line.LINE197 Bus1=183 Bus2=198 phases=3 Linecode=2c_.04 Length=6.0629 Units=m
New Line.LINE198 Bus1=184 Bus2=199 phases=3 Linecode=4c_.06_AS Length=0.25495 Units=m
New Line.LINE199 Bus1=185 Bus2=200 phases=3 Linecode=4c_.06_AS Length=4.7005 Units=m
New Line.LINE200 Bus1=185 Bus2=201 phases=3 Linecode=2c_.007 Length=0.51 Units=m
New Line.LINE201 Bus1=186 Bus2=202 phases=3 Linecode=2c_.04 Length=14.336 Units=m
New Line.LINE202 Bus1=187 Bus2=203 phases=3 Linecode=.04_LTC Length=8.7686 Units=m
New Line.LINE203 Bus1=189 Bus2=204 phases=3 Linecode=4_XSC Length=0.036055 Units=m
New Line.LINE204 Bus1=191 Bus2=205 phases=3 Linecode=4c_.06_AS Length=1.4796 Units=m
New Line.LINE205 Bus1=192 Bus2=206 phases=3 Linecode=2c_.04 Length=4.7272 Units=m
New Line.LINE206 Bus1=193 Bus2=207 phases=3 Linecode=2c_.0225 Length=0.16 Units=m
New Line.LINE207 Bus1=194 Bus2=208 phases=3 Linecode=2c_.0225 Length=0.24759 Units=m
New Line.LINE208 Bus1=195 Bus2=209 phases=3 Linecode=4c_.1_SAC Length=0.70725 Units=m
New Line.LINE209 Bus1=199 Bus2=210 phases=3 Linecode=4c_.06_AS Length=0.041231 Units=m
New Line.LINE210 Bus1=200 Bus2=211 phases=3 Linecode=4c_.06_AS Length=9.8794 Units=m
New Line.LINE211 Bus1=200 Bus2=212 phases=3 Linecode=2c_.04 Length=7.0144 Units=m
New Line.LINE212 Bus1=201 Bus2=213 phases=3 Linecode=2c_.007 Length=0.24351 Units=m
New Line.LINE213 Bus1=204 Bus2=214 phases=3 Linecode=4_XSC Length=0.031623 Units=m
New Line.LINE214 Bus1=205 Bus2=215 phases=3 Linecode=4c_.06_AS Length=0.40792 Units=m
New Line.LINE215 Bus1=207 Bus2=216 phases=3 Linecode=2c_.0225 Length=2.2316 Units=m
New Line.LINE216 Bus1=208 Bus2=217 phases=3 Linecode=2c_.0225 Length=0.30017 Units=m
New Line.LINE217 Bus1=209 Bus2=218 phases=3 Linecode=4c_.1_SAC Length=0.45651 Units=m
New Line.LINE218 Bus1=210 Bus2=219 phases=3 Linecode=4c_.06_AS Length=0.22431 Units=m
New Line.LINE219 Bus1=211 Bus2=220 phases=3 Linecode=4c_.06_AS Length=16.694 Units=m
New Line.LINE220 Bus1=211 Bus2=221 phases=3 Linecode=2c_.04 Length=9.6045 Units=m
New Line.LINE221 Bus1=212 Bus2=222 phases=3 Linecode=2c_.04 Length=0.085439 Units=m
New Line.LINE222 Bus1=213 Bus2=223 phases=3 Linecode=2c_.007 Length=0.62298 Units=m
New Line.LINE223 Bus1=214 Bus2=224 phases=3 Linecode=4_XSC Length=0.04 Units=m
New Line.LINE224 Bus1=215 Bus2=225 phases=3 Linecode=4c_.06_AS Length=1.0557 Units=m
New Line.LINE225 Bus1=216 Bus2=226 phases=3 Linecode=2c_.0225 Length=1.3865 Units=m
New Line.LINE226 Bus1=217 Bus2=227 phases=3 Linecode=2c_.0225 Length=0.32249 Units=m
New Line.LINE227 Bus1=218 Bus2=228 phases=3 Linecode=4c_.1_SAC Length=0.83193 Units=m
New Line.LINE228 Bus1=219 Bus2=229 phases=3 Linecode=4c_.06_AS Length=0.10307 Units=m
New Line.LINE229 Bus1=220 Bus2=230 phases=3 Linecode=2c_.04 Length=6.6268 Units=m
New Line.LINE230 Bus1=220 Bus2=231 phases=3 Linecode=4c_.06_AS Length=3.588 Units=m
New Line.LINE231 Bus1=221 Bus2=232 phases=3 Linecode=2c_.04 Length=0.39812 Units=m
New Line.LINE232 Bus1=222 Bus2=233 phases=3 Linecode=2c_.04 Length=0.050002 Units=m
New Line.LINE233 Bus1=224 Bus2=234 phases=3 Linecode=4_XSC Length=0.04 Units=m
New Line.LINE234 Bus1=225 Bus2=235 phases=3 Linecode=4c_.06_AS Length=0.99323 Units=m
New Line.LINE235 Bus1=226 Bus2=236 phases=3 Linecode=2c_.0225 Length=0.21 Units=m
New Line.LINE236 Bus1=227 Bus2=237 phases=3 Linecode=2c_.0225 Length=0.5016 Units=m
New Line.LINE237 Bus1=228 Bus2=238 phases=3 Linecode=4c_.1_SAC Length=1.3252 Units=m
New Line.LINE238 Bus1=229 Bus2=239 phases=3 Linecode=4c_.06_AS Length=0.14636 Units=m
New Line.LINE239 Bus1=230 Bus2=240 phases=3 Linecode=2c_.04 Length=5.5241 Units=m
New Line.LINE240 Bus1=231 Bus2=241 phases=3 Linecode=4c_.06_AS Length=1.2816 Units=m
New Line.LINE241 Bus1=231 Bus2=242 phases=3 Linecode=4_XSC Length=0.18028 Units=m
New Line.LINE242 Bus1=232 Bus2=243 phases=3 Linecode=2c_.04 Length=0.26401 Units=m
New Line.LINE243 Bus1=233 Bus2=244 phases=3 Linecode=2c_.04 Length=0.062649 Units=m
New Line.LINE244 Bus1=234 Bus2=245 phases=3 Linecode=4_XSC Length=0.031623 Units=m
New Line.LINE245 Bus1=235 Bus2=246 phases=3 Linecode=4c_.06_AS Length=0.59136 Units=m
New Line.LINE246 Bus1=236 Bus2=247 phases=3 Linecode=2c_.0225 Length=0.25 Units=m
New Line.LINE247 Bus1=237 Bus2=248 phases=3 Linecode=2c_.0225 Length=0.77878 Units=m
New Line.LINE248 Bus1=238 Bus2=249 phases=3 Linecode=4c_.1_SAC Length=0.98858 Units=m
New Line.LINE249 Bus1=239 Bus2=250 phases=3 Linecode=4c_.06_AS Length=0.10627 Units=m
New Line.LINE250 Bus1=240 Bus2=251 phases=3 Linecode=2c_.04 Length=0.19026 Units=m
New Line.LINE251 Bus1=241 Bus2=252 phases=3 Linecode=4c_.06_AS Length=8.9367 Units=m
New Line.LINE252 Bus1=241 Bus2=253 phases=3 Linecode=4c_.06_AS Length=0.80156 Units=m
New Line.LINE253 Bus1=242 Bus2=254 phases=3 Linecode=4_XSC Length=0.053851 Units=m
New Line.LINE254 Bus1=243 Bus2=255 phases=3 Linecode=2c_.04 Length=0.38328 Units=m
New Line.LINE255 Bus1=244 Bus2=256 phases=3 Linecode=2c_.04 Length=0.049244 Units=m
New Line.LINE256 Bus1=244 Bus2=257 phases=3 Linecode=2c_.04 Length=8.7962 Units=m
New Line.LINE257 Bus1=245 Bus2=258 phases=3 Linecode=4_XSC Length=0.036056 Units=m
New Line.LINE258 Bus1=246 Bus2=259 phases=3 Linecode=2c_.04 Length=0.14036 Units=m
New Line.LINE259 Bus1=246 Bus2=260 phases=3 Linecode=4c_.06_AS Length=0.15033 Units=m
New Line.LINE260 Bus1=247 Bus2=261 phases=3 Linecode=2c_.0225 Length=0.21587 Units=m
New Line.LINE261 Bus1=248 Bus2=262 phases=3 Linecode=2c_.0225 Length=1.228 Units=m
New Line.LINE262 Bus1=249 Bus2=263 phases=3 Linecode=4c_.1_SAC Length=1.0802 Units=m
New Line.LINE263 Bus1=250 Bus2=264 phases=3 Linecode=4c_.06_AS Length=0.052559 Units=m
New Line.LINE264 Bus1=251 Bus2=265 phases=3 Linecode=2c_.04 Length=0.11 Units=m
New Line.LINE265 Bus1=252 Bus2=266 phases=3 Linecode=4c_.06_AS Length=3.4907 Units=m
New Line.LINE266 Bus1=254 Bus2=267 phases=3 Linecode=4_XSC Length=0.072111 Units=m
New Line.LINE267 Bus1=255 Bus2=268 phases=3 Linecode=2c_.04 Length=6.8334 Units=m
New Line.LINE268 Bus1=256 Bus2=269 phases=3 Linecode=2c_.04 Length=0.050002 Units=m
New Line.LINE269 Bus1=258 Bus2=270 phases=3 Linecode=4_XSC Length=0.036055 Units=m
New Line.LINE270 Bus1=259 Bus2=271 phases=3 Linecode=2c_.04 Length=0.14318 Units=m
New Line.LINE271 Bus1=260 Bus2=272 phases=3 Linecode=4c_.06_AS Length=0.92049 Units=m
New Line.LINE272 Bus1=261 Bus2=273 phases=3 Linecode=2c_.0225 Length=0.21213 Units=m
New Line.LINE273 Bus1=262 Bus2=274 phases=3 Linecode=2c_.0225 Length=3.6723 Units=m
New Line.LINE274 Bus1=263 Bus2=275 phases=3 Linecode=2c_.0225 Length=0.46044 Units=m
New Line.LINE275 Bus1=263 Bus2=276 phases=3 Linecode=4c_.1_SAC Length=0.95525 Units=m
New Line.LINE276 Bus1=264 Bus2=277 phases=3 Linecode=4c_.06_AS Length=0.38833 Units=m
New Line.LINE277 Bus1=265 Bus2=278 phases=3 Linecode=2c_.04 Length=0.16492 Units=m
New Line.LINE278 Bus1=266 Bus2=279 phases=3 Linecode=4c_.06_AS Length=0.58694 Units=m
New Line.LINE279 Bus1=267 Bus2=280 phases=3 Linecode=4_XSC Length=0.28231 Units=m
New Line.LINE280 Bus1=269 Bus2=281 phases=3 Linecode=2c_.04 Length=0.13928 Units=m
New Line.LINE281 Bus1=270 Bus2=282 phases=3 Linecode=4_XSC Length=0.036056 Units=m
New Line.LINE282 Bus1=271 Bus2=283 phases=3 Linecode=2c_.04 Length=0.23022 Units=m
New Line.LINE283 Bus1=272 Bus2=284 phases=3 Linecode=2c_.007 Length=0.21024 Units=m
New Line.LINE284 Bus1=272 Bus2=285 phases=3 Linecode=4c_.06_AS Length=0.90934 Units=m
New Line.LINE285 Bus1=273 Bus2=286 phases=3 Linecode=2c_.0225 Length=0.96897 Units=m
New Line.LINE286 Bus1=274 Bus2=287 phases=3 Linecode=2c_.0225 Length=0.57079 Units=m
New Line.LINE287 Bus1=275 Bus2=288 phases=3 Linecode=2c_.0225 Length=0.24083 Units=m
New Line.LINE288 Bus1=276 Bus2=289 phases=3 Linecode=4c_.1_SAC Length=0.76485 Units=m
New Line.LINE289 Bus1=277 Bus2=290 phases=3 Linecode=4c_.06_AS Length=0.039999 Units=m
New Line.LINE290 Bus1=278 Bus2=291 phases=3 Linecode=2c_.04 Length=0.1063 Units=m
New Line.LINE291 Bus1=279 Bus2=292 phases=3 Linecode=2c_.04 Length=11.6552 Units=m
New Line.LINE292 Bus1=279 Bus2=293 phases=3 Linecode=4c_.06_AS Length=7.6132 Units=m
New Line.LINE293 Bus1=280 Bus2=294 phases=3 Linecode=4_XSC Length=0.089441 Units=m
New Line.LINE294 Bus1=281 Bus2=295 phases=3 Linecode=2c_.04 Length=0.25807 Units=m
New Line.LINE295 Bus1=282 Bus2=296 phases=3 Linecode=4_XSC Length=0.036057 Units=m
New Line.LINE296 Bus1=283 Bus2=297 phases=3 Linecode=2c_.04 Length=0.33241 Units=m
New Line.LINE297 Bus1=284 Bus2=298 phases=3 Linecode=2c_.007 Length=0.16279 Units=m
New Line.LINE298 Bus1=285 Bus2=299 phases=3 Linecode=4c_.06_AS Length=1.0674 Units=m
New Line.LINE299 Bus1=286 Bus2=300 phases=3 Linecode=2c_.0225 Length=7.9171 Units=m
New Line.LINE300 Bus1=287 Bus2=301 phases=3 Linecode=2c_.0225 Length=0.19235 Units=m
New Line.LINE301 Bus1=288 Bus2=302 phases=3 Linecode=2c_.0225 Length=0.16401 Units=m
New Line.LINE302 Bus1=289 Bus2=303 phases=3 Linecode=4c_.1_SAC Length=0.63906 Units=m
New Line.LINE303 Bus1=290 Bus2=304 phases=3 Linecode=4c_.06_AS Length=0.050001 Units=m
New Line.LINE304 Bus1=291 Bus2=305 phases=3 Linecode=2c_.04 Length=0.55902 Units=m
New Line.LINE305 Bus1=292 Bus2=306 phases=3 Linecode=2c_.04 Length=0.64327 Units=m
New Line.LINE306 Bus1=293 Bus2=307 phases=3 Linecode=4c_.06_AS Length=4.6231 Units=m
New Line.LINE307 Bus1=294 Bus2=308 phases=3 Linecode=4_XSC Length=0.053851 Units=m
New Line.LINE308 Bus1=295 Bus2=309 phases=3 Linecode=2c_.04 Length=0.21587 Units=m
New Line.LINE309 Bus1=297 Bus2=310 phases=3 Linecode=2c_.04 Length=0.29206 Units=m
New Line.LINE310 Bus1=298 Bus2=311 phases=3 Linecode=2c_.007 Length=0.16125 Units=m
New Line.LINE311 Bus1=299 Bus2=312 phases=3 Linecode=4c_.06_AS Length=1.0663 Units=m
New Line.LINE312 Bus1=301 Bus2=313 phases=3 Linecode=2c_.0225 Length=0.14422 Units=m
New Line.LINE313 Bus1=302 Bus2=314 phases=3 Linecode=2c_.0225 Length=0.22672 Units=m
New Line.LINE314 Bus1=303 Bus2=315 phases=3 Linecode=4c_.1_SAC Length=0.92914 Units=m
New Line.LINE315 Bus1=304 Bus2=316 phases=3 Linecode=4c_.06_AS Length=0.041231 Units=m
New Line.LINE316 Bus1=305 Bus2=317 phases=3 Linecode=2c_.04 Length=3.3253 Units=m
New Line.LINE317 Bus1=305 Bus2=318 phases=3 Linecode=2c_.04 Length=5.8871 Units=m
New Line.LINE318 Bus1=306 Bus2=319 phases=3 Linecode=2c_.04 Length=0.22204 Units=m
New Line.LINE319 Bus1=307 Bus2=320 phases=3 Linecode=4c_.06_AS Length=5.7664 Units=m
New Line.LINE320 Bus1=308 Bus2=321 phases=3 Linecode=4_XSC Length=0.070001 Units=m
New Line.LINE321 Bus1=309 Bus2=322 phases=3 Linecode=2c_.04 Length=0.30017 Units=m
New Line.LINE322 Bus1=310 Bus2=323 phases=3 Linecode=2c_.04 Length=0.201 Units=m
New Line.LINE323 Bus1=311 Bus2=324 phases=3 Linecode=2c_.007 Length=0.19209 Units=m
New Line.LINE324 Bus1=312 Bus2=325 phases=3 Linecode=4c_.06_AS Length=9.7267 Units=m
New Line.LINE325 Bus1=313 Bus2=326 phases=3 Linecode=2c_.0225 Length=0.12083 Units=m
New Line.LINE326 Bus1=314 Bus2=327 phases=3 Linecode=2c_.0225 Length=0.24759 Units=m
New Line.LINE327 Bus1=315 Bus2=328 phases=3 Linecode=4c_.1_SAC Length=0.76844 Units=m
New Line.LINE328 Bus1=316 Bus2=329 phases=3 Linecode=4c_.06_AS Length=0.058309 Units=m
New Line.LINE329 Bus1=317 Bus2=330 phases=3 Linecode=2c_.04 Length=3.8328 Units=m
New Line.LINE330 Bus1=319 Bus2=331 phases=3 Linecode=2c_.04 Length=0.17088 Units=m
New Line.LINE331 Bus1=320 Bus2=332 phases=3 Linecode=2c_.04 Length=11.4935 Units=m
New Line.LINE332 Bus1=320 Bus2=333 phases=3 Linecode=4c_.06_AS Length=0.33241 Units=m
New Line.LINE333 Bus1=321 Bus2=334 phases=3 Linecode=4_XSC Length=0.070711 Units=m
New Line.LINE334 Bus1=322 Bus2=335 phases=3 Linecode=2c_.04 Length=0.2912 Units=m
New Line.LINE335 Bus1=323 Bus2=336 phases=3 Linecode=2c_.04 Length=7.4732 Units=m
New Line.LINE336 Bus1=324 Bus2=337 phases=3 Linecode=2c_.007 Length=1.9285 Units=m
New Line.LINE337 Bus1=325 Bus2=338 phases=3 Linecode=2c_.04 Length=8.243 Units=m
New Line.LINE338 Bus1=325 Bus2=339 phases=3 Linecode=4c_.06_AS Length=15.2902 Units=m
New Line.LINE339 Bus1=326 Bus2=340 phases=3 Linecode=2c_.0225 Length=0.31575 Units=m
New Line.LINE340 Bus1=327 Bus2=341 phases=3 Linecode=2c_.0225 Length=0.58138 Units=m
New Line.LINE341 Bus1=328 Bus2=342 phases=3 Linecode=2c_.007 Length=1.7253 Units=m
New Line.LINE342 Bus1=328 Bus2=343 phases=3 Linecode=2c_.0225 Length=0.3245 Units=m
New Line.LINE343 Bus1=328 Bus2=344 phases=3 Linecode=4c_.1_SAC Length=0.43841 Units=m
New Line.LINE344 Bus1=329 Bus2=345 phases=3 Linecode=4c_.06_AS Length=0.036056 Units=m
New Line.LINE345 Bus1=331 Bus2=346 phases=3 Linecode=2c_.04 Length=0.13928 Units=m
New Line.LINE346 Bus1=332 Bus2=347 phases=3 Linecode=2c_.04 Length=0.44148 Units=m
New Line.LINE347 Bus1=333 Bus2=348 phases=3 Linecode=4c_.06_AS Length=7.7703 Units=m
New Line.LINE348 Bus1=334 Bus2=349 phases=3 Linecode=4_XSC Length=0.1456 Units=m
New Line.LINE349 Bus1=335 Bus2=350 phases=3 Linecode=2c_.04 Length=0.21213 Units=m
New Line.LINE350 Bus1=336 Bus2=351 phases=3 Linecode=2c_.04 Length=8.494 Units=m
New Line.LINE351 Bus1=337 Bus2=352 phases=3 Linecode=4_XSC Length=1.6141 Units=m
New Line.LINE352 Bus1=338 Bus2=353 phases=3 Linecode=2c_.04 Length=1.7398 Units=m
New Line.LINE353 Bus1=339 Bus2=354 phases=3 Linecode=2c_.04 Length=7.4069 Units=m
New Line.LINE354 Bus1=339 Bus2=355 phases=3 Linecode=4c_.06_AS Length=8.0013 Units=m
New Line.LINE355 Bus1=340 Bus2=356 phases=3 Linecode=2c_.0225 Length=2.5452 Units=m
New Line.LINE356 Bus1=341 Bus2=357 phases=3 Linecode=2c_.0225 Length=0.75928 Units=m
New Line.LINE357 Bus1=342 Bus2=358 phases=3 Linecode=2c_.007 Length=0.43267 Units=m
New Line.LINE358 Bus1=343 Bus2=359 phases=3 Linecode=2c_.0225 Length=0.13342 Units=m