Set DefaultBaseFreq=60
New Circuit.ENWL BasekV=11 pu=1.00  ISC3=3000  ISC1=2500
Redirect LineCode.txt
!Redirect LoadShapes.txt
Redirect Lines.txt
Redirect Transformers.txt
Redirect Loads.dss
!Redirect Monitors.txt
solve