New Line.LINE1 Bus1=1 Bus2=2 phases=3 Linecode=4c_.3_SAC Length=0.38275 Units=m
New Line.LINE2 Bus1=2 Bus2=3 phases=3 Linecode=4c_.3_SAC Length=0.031623 Units=m
New Line.LINE3 Bus1=3 Bus2=4 phases=3 Linecode=4c_.3_SAC Length=0.04 Units=m
New Line.LINE4 Bus1=4 Bus2=5 phases=3 Linecode=4c_.3_SAC Length=0.030001 Units=m
New Line.LINE5 Bus1=5 Bus2=6 phases=3 Linecode=4c_.3_SAC Length=0.050989 Units=m
New Line.LINE6 Bus1=6 Bus2=7 phases=3 Linecode=4c_.3_SAC Length=0.042426 Units=m
New Line.LINE7 Bus1=7 Bus2=8 phases=3 Linecode=4c_.3_SAC Length=0.036056 Units=m
New Line.LINE8 Bus1=8 Bus2=9 phases=3 Linecode=4c_.3_SAC Length=0.036056 Units=m
New Line.LINE9 Bus1=9 Bus2=10 phases=3 Linecode=4c_.3_SAC Length=0.044721 Units=m
New Line.LINE10 Bus1=10 Bus2=11 phases=3 Linecode=4c_.3_SAC Length=3.7293 Units=m
New Line.LINE11 Bus1=11 Bus2=12 phases=3 Linecode=4c_.3_SAC Length=2.0412 Units=m
New Line.LINE12 Bus1=12 Bus2=13 phases=3 Linecode=4c_.3_SAC Length=0.75392 Units=m
New Line.LINE13 Bus1=13 Bus2=14 phases=3 Linecode=4c_.3_SAC Length=0.080623 Units=m
New Line.LINE14 Bus1=14 Bus2=15 phases=3 Linecode=4c_.3_SAC Length=0.080622 Units=m
New Line.LINE15 Bus1=15 Bus2=16 phases=3 Linecode=4c_.3_SAC Length=0.078104 Units=m
New Line.LINE16 Bus1=16 Bus2=17 phases=3 Linecode=4c_.3_SAC Length=0.06403 Units=m
New Line.LINE17 Bus1=17 Bus2=18 phases=3 Linecode=4c_.3_SAC Length=0.053852 Units=m
New Line.LINE18 Bus1=18 Bus2=19 phases=3 Linecode=4c_.3_SAC Length=0.076158 Units=m
New Line.LINE19 Bus1=19 Bus2=20 phases=3 Linecode=4c_.3_SAC Length=0.080622 Units=m
New Line.LINE20 Bus1=20 Bus2=21 phases=3 Linecode=4c_.3_SAC Length=0.070001 Units=m
New Line.LINE21 Bus1=21 Bus2=22 phases=3 Linecode=4c_.3_SAC Length=0.082462 Units=m
New Line.LINE22 Bus1=22 Bus2=23 phases=3 Linecode=4c_.3_SAC Length=0.072801 Units=m
New Line.LINE23 Bus1=23 Bus2=24 phases=3 Linecode=4c_.3_SAC Length=0.08544 Units=m
New Line.LINE24 Bus1=24 Bus2=25 phases=3 Linecode=4c_.3_SAC Length=0.62769 Units=m
New Line.LINE25 Bus1=25 Bus2=26 phases=3 Linecode=4c_.3_SAC Length=2.2795 Units=m
New Line.LINE26 Bus1=26 Bus2=27 phases=3 Linecode=4c_.3_SAC Length=0.11705 Units=m
New Line.LINE27 Bus1=27 Bus2=28 phases=3 Linecode=4c_.3_SAC Length=0.089443 Units=m
New Line.LINE28 Bus1=28 Bus2=29 phases=3 Linecode=4c_.3_SAC Length=0.092196 Units=m
New Line.LINE29 Bus1=29 Bus2=30 phases=3 Linecode=4c_.3_SAC Length=0.064031 Units=m
New Line.LINE30 Bus1=30 Bus2=31 phases=3 Linecode=4c_.3_SAC Length=0.078102 Units=m
New Line.LINE31 Bus1=31 Bus2=32 phases=3 Linecode=4c_.3_SAC Length=0.076158 Units=m
New Line.LINE32 Bus1=32 Bus2=33 phases=3 Linecode=4c_.3_SAC Length=0.08544 Units=m
New Line.LINE33 Bus1=33 Bus2=34 phases=3 Linecode=4c_.3_SAC Length=0.12042 Units=m
New Line.LINE34 Bus1=34 Bus2=35 phases=3 Linecode=4c_.3_SAC Length=0.13 Units=m
New Line.LINE35 Bus1=35 Bus2=36 phases=3 Linecode=4c_.3_SAC Length=0.1005 Units=m
New Line.LINE36 Bus1=36 Bus2=37 phases=3 Linecode=4c_.3_SAC Length=0.11402 Units=m
New Line.LINE37 Bus1=37 Bus2=38 phases=3 Linecode=4c_.3_SAC Length=0.23537 Units=m
New Line.LINE38 Bus1=38 Bus2=39 phases=3 Linecode=4c_.3_SAC Length=0.45891 Units=m
New Line.LINE39 Bus1=39 Bus2=40 phases=3 Linecode=4c_.3_SAC Length=1.4204 Units=m
New Line.LINE40 Bus1=40 Bus2=41 phases=3 Linecode=4c_.3_SAC Length=0.31575 Units=m
New Line.LINE41 Bus1=41 Bus2=42 phases=3 Linecode=4c_.3_SAC Length=0.39051 Units=m
New Line.LINE42 Bus1=42 Bus2=43 phases=3 Linecode=4c_.3_SAC Length=0.79057 Units=m
New Line.LINE43 Bus1=43 Bus2=44 phases=3 Linecode=4c_.3_SAC Length=0.87092 Units=m
New Line.LINE44 Bus1=44 Bus2=45 phases=3 Linecode=4c_.3_SAC Length=1.9165 Units=m
New Line.LINE45 Bus1=45 Bus2=46 phases=3 Linecode=4c_.3_SAC Length=0.31321 Units=m
New Line.LINE46 Bus1=46 Bus2=47 phases=3 Linecode=4c_.3_SAC Length=0.29833 Units=m
New Line.LINE47 Bus1=47 Bus2=48 phases=3 Linecode=4c_.3_SAC Length=0.27203 Units=m
New Line.LINE48 Bus1=48 Bus2=49 phases=3 Linecode=4c_.3_SAC Length=0.43658 Units=m
New Line.LINE49 Bus1=49 Bus2=50 phases=3 Linecode=4c_.3_SAC Length=0.18028 Units=m
New Line.LINE50 Bus1=50 Bus2=51 phases=3 Linecode=4c_.3_SAC Length=0.34132 Units=m
New Line.LINE51 Bus1=51 Bus2=52 phases=3 Linecode=4c_.3_SAC Length=0.23022 Units=m
New Line.LINE52 Bus1=52 Bus2=53 phases=3 Linecode=4c_.3_SAC Length=0.22671 Units=m
New Line.LINE53 Bus1=53 Bus2=54 phases=3 Linecode=4c_.3_SAC Length=0.40497 Units=m
New Line.LINE54 Bus1=54 Bus2=55 phases=3 Linecode=4c_.3_SAC Length=0.42544 Units=m
New Line.LINE55 Bus1=55 Bus2=56 phases=3 Linecode=4c_.3_SAC Length=2.4684 Units=m
New Line.LINE56 Bus1=56 Bus2=57 phases=3 Linecode=4c_.3_SAC Length=1.0869 Units=m
New Line.LINE57 Bus1=57 Bus2=58 phases=3 Linecode=4c_.3_SAC Length=0.13893 Units=m
New Line.LINE58 Bus1=58 Bus2=59 phases=3 Linecode=4c_.3_SAC Length=0.1063 Units=m
New Line.LINE59 Bus1=59 Bus2=60 phases=3 Linecode=4c_.3_SAC Length=0.086023 Units=m
New Line.LINE60 Bus1=60 Bus2=61 phases=3 Linecode=4c_.3_SAC Length=0.098995 Units=m
New Line.LINE61 Bus1=61 Bus2=62 phases=3 Linecode=4c_.3_SAC Length=0.1 Units=m
New Line.LINE62 Bus1=62 Bus2=63 phases=3 Linecode=4c_.3_SAC Length=0.13038 Units=m
New Line.LINE63 Bus1=63 Bus2=64 phases=3 Linecode=4c_.3_SAC Length=1.3424 Units=m
New Line.LINE64 Bus1=64 Bus2=65 phases=3 Linecode=4c_.3_SAC Length=0.67602 Units=m
New Line.LINE65 Bus1=65 Bus2=66 phases=3 Linecode=4c_.3_SAC Length=1.3512 Units=m
New Line.LINE66 Bus1=66 Bus2=67 phases=3 Linecode=4c_.3_SAC Length=1.655 Units=m
New Line.LINE67 Bus1=67 Bus2=68 phases=3 Linecode=4c_.3_SAC Length=1.0345 Units=m
New Line.LINE68 Bus1=68 Bus2=69 phases=3 Linecode=4c_.3_SAC Length=0.48374 Units=m
New Line.LINE69 Bus1=69 Bus2=70 phases=3 Linecode=4c_.3_SAC Length=0.41629 Units=m
New Line.LINE70 Bus1=70 Bus2=71 phases=3 Linecode=4c_.3_SAC Length=0.19698 Units=m
New Line.LINE71 Bus1=71 Bus2=72 phases=3 Linecode=4c_.3_SAC Length=0.30806 Units=m
New Line.LINE72 Bus1=72 Bus2=73 phases=3 Linecode=4c_.3_SAC Length=0.15811 Units=m
New Line.LINE73 Bus1=73 Bus2=74 phases=3 Linecode=4c_.3_SAC Length=0.28231 Units=m
New Line.LINE74 Bus1=74 Bus2=75 phases=3 Linecode=4c_.3_SAC Length=1.8793 Units=m
New Line.LINE75 Bus1=75 Bus2=76 phases=3 Linecode=4c_.3_SAC Length=1.5099 Units=m
New Line.LINE76 Bus1=76 Bus2=77 phases=3 Linecode=4c_.3_SAC Length=0.22561 Units=m
New Line.LINE77 Bus1=77 Bus2=78 phases=3 Linecode=4c_.3_SAC Length=0.080622 Units=m
New Line.LINE78 Bus1=78 Bus2=79 phases=3 Linecode=4c_.3_SAC Length=0.090554 Units=m
New Line.LINE79 Bus1=79 Bus2=80 phases=3 Linecode=4c_.3_SAC Length=0.18 Units=m
New Line.LINE80 Bus1=80 Bus2=81 phases=3 Linecode=4c_.3_SAC Length=0.15133 Units=m
New Line.LINE81 Bus1=81 Bus2=82 phases=3 Linecode=4c_.3_SAC Length=0.14866 Units=m
New Line.LINE82 Bus1=82 Bus2=83 phases=3 Linecode=4c_.3_SAC Length=0.14318 Units=m
New Line.LINE83 Bus1=83 Bus2=84 phases=3 Linecode=4c_.3_SAC Length=0.45486 Units=m
New Line.LINE84 Bus1=84 Bus2=85 phases=3 Linecode=4c_.3_SAC Length=0.19105 Units=m
New Line.LINE85 Bus1=85 Bus2=86 phases=3 Linecode=4c_.3_SAC Length=0.20616 Units=m
New Line.LINE86 Bus1=86 Bus2=87 phases=3 Linecode=4c_.3_SAC Length=0.14422 Units=m
New Line.LINE87 Bus1=87 Bus2=88 phases=3 Linecode=4c_.3_SAC Length=0.17889 Units=m
New Line.LINE88 Bus1=88 Bus2=89 phases=3 Linecode=4c_.3_SAC Length=1.9326 Units=m
New Line.LINE89 Bus1=89 Bus2=90 phases=3 Linecode=3c_240_SAC_XC Length=2.4135 Units=m
New Line.LINE90 Bus1=90 Bus2=91 phases=3 Linecode=25_SAC_XC Length=5.1712 Units=m
New Line.LINE91 Bus1=90 Bus2=92 phases=3 Linecode=25_SAC_XC Length=4.6239 Units=m
New Line.LINE92 Bus1=90 Bus2=93 phases=3 Linecode=25_SAC_XC Length=5.2498 Units=m
New Line.LINE93 Bus1=90 Bus2=94 phases=3 Linecode=25_SAC_XC Length=5.2498 Units=m
New Line.LINE94 Bus1=90 Bus2=95 phases=3 Linecode=25_SAC_XC Length=4.6239 Units=m
New Line.LINE95 Bus1=90 Bus2=96 phases=3 Linecode=25_SAC_XC Length=5.2498 Units=m
New Line.LINE96 Bus1=90 Bus2=97 phases=3 Linecode=25_SAC_XC Length=5.2498 Units=m
New Line.LINE97 Bus1=90 Bus2=98 phases=3 Linecode=25_SAC_XC Length=4.6239 Units=m
New Line.LINE98 Bus1=90 Bus2=99 phases=3 Linecode=25_SAC_XC Length=5.2498 Units=m
New Line.LINE99 Bus1=90 Bus2=100 phases=3 Linecode=25_SAC_XC Length=5.2498 Units=m
New Line.LINE100 Bus1=90 Bus2=101 phases=3 Linecode=25_SAC_XC Length=5.2498 Units=m
New Line.LINE101 Bus1=90 Bus2=102 phases=3 Linecode=25_SAC_XC Length=5.2498 Units=m
New Line.LINE102 Bus1=90 Bus2=103 phases=3 Linecode=25_SAC_XC Length=5.2498 Units=m
New Line.LINE103 Bus1=90 Bus2=104 phases=3 Linecode=25_SAC_XC Length=5.2498 Units=m
New Line.LINE104 Bus1=90 Bus2=105 phases=3 Linecode=25_SAC_XC Length=5.2498 Units=m
New Line.LINE105 Bus1=90 Bus2=106 phases=3 Linecode=25_SAC_XC Length=5.2498 Units=m
New Line.LINE106 Bus1=90 Bus2=107 phases=3 Linecode=25_SAC_XC Length=4.6239 Units=m
New Line.LINE107 Bus1=90 Bus2=108 phases=3 Linecode=25_SAC_XC Length=5.2498 Units=m
New Line.LINE108 Bus1=90 Bus2=109 phases=3 Linecode=25_SAC_XC Length=5.2498 Units=m
New Line.LINE109 Bus1=90 Bus2=110 phases=3 Linecode=25_SAC_XC Length=4.6239 Units=m
New Line.LINE110 Bus1=90 Bus2=111 phases=3 Linecode=25_SAC_XC Length=5.2498 Units=m
