New Loadshape.Shape_1 npts=288 interval=0.0833 mult=(file=C:\2014\ENWL_Network_Creation\Feeder_Representation\Load_files_Model\Load_profiles\Load1_5min.csv) useactual=false
New Loadshape.Shape_2 npts=288 interval=0.0833 mult=(file=C:\2014\ENWL_Network_Creation\Feeder_Representation\Load_files_Model\Load_profiles\Load2_5min.csv) useactual=false
New Loadshape.Shape_3 npts=288 interval=0.0833 mult=(file=C:\2014\ENWL_Network_Creation\Feeder_Representation\Load_files_Model\Load_profiles\Load3_5min.csv) useactual=false
New Loadshape.Shape_4 npts=288 interval=0.0833 mult=(file=C:\2014\ENWL_Network_Creation\Feeder_Representation\Load_files_Model\Load_profiles\Load4_5min.csv) useactual=false
New Loadshape.Shape_5 npts=288 interval=0.0833 mult=(file=C:\2014\ENWL_Network_Creation\Feeder_Representation\Load_files_Model\Load_profiles\Load5_5min.csv) useactual=false
New Loadshape.Shape_6 npts=288 interval=0.0833 mult=(file=C:\2014\ENWL_Network_Creation\Feeder_Representation\Load_files_Model\Load_profiles\Load6_5min.csv) useactual=false
New Loadshape.Shape_7 npts=288 interval=0.0833 mult=(file=C:\2014\ENWL_Network_Creation\Feeder_Representation\Load_files_Model\Load_profiles\Load7_5min.csv) useactual=false
New Loadshape.Shape_8 npts=288 interval=0.0833 mult=(file=C:\2014\ENWL_Network_Creation\Feeder_Representation\Load_files_Model\Load_profiles\Load8_5min.csv) useactual=false
New Loadshape.Shape_9 npts=288 interval=0.0833 mult=(file=C:\2014\ENWL_Network_Creation\Feeder_Representation\Load_files_Model\Load_profiles\Load9_5min.csv) useactual=false
New Loadshape.Shape_10 npts=288 interval=0.0833 mult=(file=C:\2014\ENWL_Network_Creation\Feeder_Representation\Load_files_Model\Load_profiles\Load10_5min.csv) useactual=false
New Loadshape.Shape_11 npts=288 interval=0.0833 mult=(file=C:\2014\ENWL_Network_Creation\Feeder_Representation\Load_files_Model\Load_profiles\Load11_5min.csv) useactual=false
New Loadshape.Shape_12 npts=288 interval=0.0833 mult=(file=C:\2014\ENWL_Network_Creation\Feeder_Representation\Load_files_Model\Load_profiles\Load12_5min.csv) useactual=false
New Loadshape.Shape_13 npts=288 interval=0.0833 mult=(file=C:\2014\ENWL_Network_Creation\Feeder_Representation\Load_files_Model\Load_profiles\Load13_5min.csv) useactual=false
New Loadshape.Shape_14 npts=288 interval=0.0833 mult=(file=C:\2014\ENWL_Network_Creation\Feeder_Representation\Load_files_Model\Load_profiles\Load14_5min.csv) useactual=false
New Loadshape.Shape_15 npts=288 interval=0.0833 mult=(file=C:\2014\ENWL_Network_Creation\Feeder_Representation\Load_files_Model\Load_profiles\Load15_5min.csv) useactual=false
New Loadshape.Shape_16 npts=288 interval=0.0833 mult=(file=C:\2014\ENWL_Network_Creation\Feeder_Representation\Load_files_Model\Load_profiles\Load16_5min.csv) useactual=false
New Loadshape.Shape_17 npts=288 interval=0.0833 mult=(file=C:\2014\ENWL_Network_Creation\Feeder_Representation\Load_files_Model\Load_profiles\Load17_5min.csv) useactual=false
New Loadshape.Shape_18 npts=288 interval=0.0833 mult=(file=C:\2014\ENWL_Network_Creation\Feeder_Representation\Load_files_Model\Load_profiles\Load18_5min.csv) useactual=false
New Loadshape.Shape_19 npts=288 interval=0.0833 mult=(file=C:\2014\ENWL_Network_Creation\Feeder_Representation\Load_files_Model\Load_profiles\Load19_5min.csv) useactual=false
New Loadshape.Shape_20 npts=288 interval=0.0833 mult=(file=C:\2014\ENWL_Network_Creation\Feeder_Representation\Load_files_Model\Load_profiles\Load20_5min.csv) useactual=false
New Loadshape.Shape_21 npts=288 interval=0.0833 mult=(file=C:\2014\ENWL_Network_Creation\Feeder_Representation\Load_files_Model\Load_profiles\Load21_5min.csv) useactual=false
New Loadshape.Shape_22 npts=288 interval=0.0833 mult=(file=C:\2014\ENWL_Network_Creation\Feeder_Representation\Load_files_Model\Load_profiles\Load22_5min.csv) useactual=false
New Loadshape.Shape_23 npts=288 interval=0.0833 mult=(file=C:\2014\ENWL_Network_Creation\Feeder_Representation\Load_files_Model\Load_profiles\Load23_5min.csv) useactual=false
New Loadshape.Shape_24 npts=288 interval=0.0833 mult=(file=C:\2014\ENWL_Network_Creation\Feeder_Representation\Load_files_Model\Load_profiles\Load24_5min.csv) useactual=false
New Loadshape.Shape_25 npts=288 interval=0.0833 mult=(file=C:\2014\ENWL_Network_Creation\Feeder_Representation\Load_files_Model\Load_profiles\Load25_5min.csv) useactual=false
New Loadshape.Shape_26 npts=288 interval=0.0833 mult=(file=C:\2014\ENWL_Network_Creation\Feeder_Representation\Load_files_Model\Load_profiles\Load26_5min.csv) useactual=false
New Loadshape.Shape_27 npts=288 interval=0.0833 mult=(file=C:\2014\ENWL_Network_Creation\Feeder_Representation\Load_files_Model\Load_profiles\Load27_5min.csv) useactual=false
New Loadshape.Shape_28 npts=288 interval=0.0833 mult=(file=C:\2014\ENWL_Network_Creation\Feeder_Representation\Load_files_Model\Load_profiles\Load28_5min.csv) useactual=false
New Loadshape.Shape_29 npts=288 interval=0.0833 mult=(file=C:\2014\ENWL_Network_Creation\Feeder_Representation\Load_files_Model\Load_profiles\Load29_5min.csv) useactual=false
New Loadshape.Shape_30 npts=288 interval=0.0833 mult=(file=C:\2014\ENWL_Network_Creation\Feeder_Representation\Load_files_Model\Load_profiles\Load30_5min.csv) useactual=false
New Loadshape.Shape_31 npts=288 interval=0.0833 mult=(file=C:\2014\ENWL_Network_Creation\Feeder_Representation\Load_files_Model\Load_profiles\Load31_5min.csv) useactual=false
New Loadshape.Shape_32 npts=288 interval=0.0833 mult=(file=C:\2014\ENWL_Network_Creation\Feeder_Representation\Load_files_Model\Load_profiles\Load32_5min.csv) useactual=false
New Loadshape.Shape_33 npts=288 interval=0.0833 mult=(file=C:\2014\ENWL_Network_Creation\Feeder_Representation\Load_files_Model\Load_profiles\Load33_5min.csv) useactual=false
New Loadshape.Shape_34 npts=288 interval=0.0833 mult=(file=C:\2014\ENWL_Network_Creation\Feeder_Representation\Load_files_Model\Load_profiles\Load34_5min.csv) useactual=false
New Loadshape.Shape_35 npts=288 interval=0.0833 mult=(file=C:\2014\ENWL_Network_Creation\Feeder_Representation\Load_files_Model\Load_profiles\Load35_5min.csv) useactual=false
New Loadshape.Shape_36 npts=288 interval=0.0833 mult=(file=C:\2014\ENWL_Network_Creation\Feeder_Representation\Load_files_Model\Load_profiles\Load36_5min.csv) useactual=false
New Loadshape.Shape_37 npts=288 interval=0.0833 mult=(file=C:\2014\ENWL_Network_Creation\Feeder_Representation\Load_files_Model\Load_profiles\Load37_5min.csv) useactual=false
New Loadshape.Shape_38 npts=288 interval=0.0833 mult=(file=C:\2014\ENWL_Network_Creation\Feeder_Representation\Load_files_Model\Load_profiles\Load38_5min.csv) useactual=false
New Loadshape.Shape_39 npts=288 interval=0.0833 mult=(file=C:\2014\ENWL_Network_Creation\Feeder_Representation\Load_files_Model\Load_profiles\Load39_5min.csv) useactual=false
New Loadshape.Shape_40 npts=288 interval=0.0833 mult=(file=C:\2014\ENWL_Network_Creation\Feeder_Representation\Load_files_Model\Load_profiles\Load40_5min.csv) useactual=false
New Loadshape.Shape_41 npts=288 interval=0.0833 mult=(file=C:\2014\ENWL_Network_Creation\Feeder_Representation\Load_files_Model\Load_profiles\Load41_5min.csv) useactual=false
New Loadshape.Shape_42 npts=288 interval=0.0833 mult=(file=C:\2014\ENWL_Network_Creation\Feeder_Representation\Load_files_Model\Load_profiles\Load42_5min.csv) useactual=false
New Loadshape.Shape_43 npts=288 interval=0.0833 mult=(file=C:\2014\ENWL_Network_Creation\Feeder_Representation\Load_files_Model\Load_profiles\Load43_5min.csv) useactual=false
New Loadshape.Shape_44 npts=288 interval=0.0833 mult=(file=C:\2014\ENWL_Network_Creation\Feeder_Representation\Load_files_Model\Load_profiles\Load44_5min.csv) useactual=false
New Loadshape.Shape_45 npts=288 interval=0.0833 mult=(file=C:\2014\ENWL_Network_Creation\Feeder_Representation\Load_files_Model\Load_profiles\Load45_5min.csv) useactual=false
New Loadshape.Shape_46 npts=288 interval=0.0833 mult=(file=C:\2014\ENWL_Network_Creation\Feeder_Representation\Load_files_Model\Load_profiles\Load46_5min.csv) useactual=false
New Loadshape.Shape_47 npts=288 interval=0.0833 mult=(file=C:\2014\ENWL_Network_Creation\Feeder_Representation\Load_files_Model\Load_profiles\Load47_5min.csv) useactual=false
New Loadshape.Shape_48 npts=288 interval=0.0833 mult=(file=C:\2014\ENWL_Network_Creation\Feeder_Representation\Load_files_Model\Load_profiles\Load48_5min.csv) useactual=false
New Loadshape.Shape_49 npts=288 interval=0.0833 mult=(file=C:\2014\ENWL_Network_Creation\Feeder_Representation\Load_files_Model\Load_profiles\Load49_5min.csv) useactual=false
New Loadshape.Shape_50 npts=288 interval=0.0833 mult=(file=C:\2014\ENWL_Network_Creation\Feeder_Representation\Load_files_Model\Load_profiles\Load50_5min.csv) useactual=false
New Loadshape.Shape_51 npts=288 interval=0.0833 mult=(file=C:\2014\ENWL_Network_Creation\Feeder_Representation\Load_files_Model\Load_profiles\Load51_5min.csv) useactual=false
New Loadshape.Shape_52 npts=288 interval=0.0833 mult=(file=C:\2014\ENWL_Network_Creation\Feeder_Representation\Load_files_Model\Load_profiles\Load52_5min.csv) useactual=false
New Loadshape.Shape_53 npts=288 interval=0.0833 mult=(file=C:\2014\ENWL_Network_Creation\Feeder_Representation\Load_files_Model\Load_profiles\Load53_5min.csv) useactual=false
New Loadshape.Shape_54 npts=288 interval=0.0833 mult=(file=C:\2014\ENWL_Network_Creation\Feeder_Representation\Load_files_Model\Load_profiles\Load54_5min.csv) useactual=false
New Loadshape.Shape_55 npts=288 interval=0.0833 mult=(file=C:\2014\ENWL_Network_Creation\Feeder_Representation\Load_files_Model\Load_profiles\Load55_5min.csv) useactual=false
New Loadshape.Shape_56 npts=288 interval=0.0833 mult=(file=C:\2014\ENWL_Network_Creation\Feeder_Representation\Load_files_Model\Load_profiles\Load56_5min.csv) useactual=false
New Loadshape.Shape_57 npts=288 interval=0.0833 mult=(file=C:\2014\ENWL_Network_Creation\Feeder_Representation\Load_files_Model\Load_profiles\Load57_5min.csv) useactual=false
New Loadshape.Shape_58 npts=288 interval=0.0833 mult=(file=C:\2014\ENWL_Network_Creation\Feeder_Representation\Load_files_Model\Load_profiles\Load58_5min.csv) useactual=false
New Loadshape.Shape_59 npts=288 interval=0.0833 mult=(file=C:\2014\ENWL_Network_Creation\Feeder_Representation\Load_files_Model\Load_profiles\Load59_5min.csv) useactual=false
New Loadshape.Shape_60 npts=288 interval=0.0833 mult=(file=C:\2014\ENWL_Network_Creation\Feeder_Representation\Load_files_Model\Load_profiles\Load60_5min.csv) useactual=false
New Loadshape.Shape_61 npts=288 interval=0.0833 mult=(file=C:\2014\ENWL_Network_Creation\Feeder_Representation\Load_files_Model\Load_profiles\Load61_5min.csv) useactual=false
New Loadshape.Shape_62 npts=288 interval=0.0833 mult=(file=C:\2014\ENWL_Network_Creation\Feeder_Representation\Load_files_Model\Load_profiles\Load62_5min.csv) useactual=false
New Loadshape.Shape_63 npts=288 interval=0.0833 mult=(file=C:\2014\ENWL_Network_Creation\Feeder_Representation\Load_files_Model\Load_profiles\Load63_5min.csv) useactual=false
New Loadshape.Shape_64 npts=288 interval=0.0833 mult=(file=C:\2014\ENWL_Network_Creation\Feeder_Representation\Load_files_Model\Load_profiles\Load64_5min.csv) useactual=false
New Loadshape.Shape_65 npts=288 interval=0.0833 mult=(file=C:\2014\ENWL_Network_Creation\Feeder_Representation\Load_files_Model\Load_profiles\Load65_5min.csv) useactual=false
New Loadshape.Shape_66 npts=288 interval=0.0833 mult=(file=C:\2014\ENWL_Network_Creation\Feeder_Representation\Load_files_Model\Load_profiles\Load66_5min.csv) useactual=false
New Loadshape.Shape_67 npts=288 interval=0.0833 mult=(file=C:\2014\ENWL_Network_Creation\Feeder_Representation\Load_files_Model\Load_profiles\Load67_5min.csv) useactual=false
New Loadshape.Shape_68 npts=288 interval=0.0833 mult=(file=C:\2014\ENWL_Network_Creation\Feeder_Representation\Load_files_Model\Load_profiles\Load68_5min.csv) useactual=false
New Loadshape.Shape_69 npts=288 interval=0.0833 mult=(file=C:\2014\ENWL_Network_Creation\Feeder_Representation\Load_files_Model\Load_profiles\Load69_5min.csv) useactual=false
New Loadshape.Shape_70 npts=288 interval=0.0833 mult=(file=C:\2014\ENWL_Network_Creation\Feeder_Representation\Load_files_Model\Load_profiles\Load70_5min.csv) useactual=false
New Loadshape.Shape_71 npts=288 interval=0.0833 mult=(file=C:\2014\ENWL_Network_Creation\Feeder_Representation\Load_files_Model\Load_profiles\Load71_5min.csv) useactual=false
New Loadshape.Shape_72 npts=288 interval=0.0833 mult=(file=C:\2014\ENWL_Network_Creation\Feeder_Representation\Load_files_Model\Load_profiles\Load72_5min.csv) useactual=false
New Loadshape.Shape_73 npts=288 interval=0.0833 mult=(file=C:\2014\ENWL_Network_Creation\Feeder_Representation\Load_files_Model\Load_profiles\Load73_5min.csv) useactual=false
New Loadshape.Shape_74 npts=288 interval=0.0833 mult=(file=C:\2014\ENWL_Network_Creation\Feeder_Representation\Load_files_Model\Load_profiles\Load74_5min.csv) useactual=false
New Loadshape.Shape_75 npts=288 interval=0.0833 mult=(file=C:\2014\ENWL_Network_Creation\Feeder_Representation\Load_files_Model\Load_profiles\Load75_5min.csv) useactual=false
New Loadshape.Shape_76 npts=288 interval=0.0833 mult=(file=C:\2014\ENWL_Network_Creation\Feeder_Representation\Load_files_Model\Load_profiles\Load76_5min.csv) useactual=false
New Loadshape.Shape_77 npts=288 interval=0.0833 mult=(file=C:\2014\ENWL_Network_Creation\Feeder_Representation\Load_files_Model\Load_profiles\Load77_5min.csv) useactual=false
New Loadshape.Shape_78 npts=288 interval=0.0833 mult=(file=C:\2014\ENWL_Network_Creation\Feeder_Representation\Load_files_Model\Load_profiles\Load78_5min.csv) useactual=false
New Loadshape.Shape_79 npts=288 interval=0.0833 mult=(file=C:\2014\ENWL_Network_Creation\Feeder_Representation\Load_files_Model\Load_profiles\Load79_5min.csv) useactual=false
New Loadshape.Shape_80 npts=288 interval=0.0833 mult=(file=C:\2014\ENWL_Network_Creation\Feeder_Representation\Load_files_Model\Load_profiles\Load80_5min.csv) useactual=false
New Loadshape.Shape_81 npts=288 interval=0.0833 mult=(file=C:\2014\ENWL_Network_Creation\Feeder_Representation\Load_files_Model\Load_profiles\Load81_5min.csv) useactual=false
New Loadshape.Shape_82 npts=288 interval=0.0833 mult=(file=C:\2014\ENWL_Network_Creation\Feeder_Representation\Load_files_Model\Load_profiles\Load82_5min.csv) useactual=false
New Loadshape.Shape_83 npts=288 interval=0.0833 mult=(file=C:\2014\ENWL_Network_Creation\Feeder_Representation\Load_files_Model\Load_profiles\Load83_5min.csv) useactual=false
New Loadshape.Shape_84 npts=288 interval=0.0833 mult=(file=C:\2014\ENWL_Network_Creation\Feeder_Representation\Load_files_Model\Load_profiles\Load84_5min.csv) useactual=false
New Loadshape.Shape_85 npts=288 interval=0.0833 mult=(file=C:\2014\ENWL_Network_Creation\Feeder_Representation\Load_files_Model\Load_profiles\Load85_5min.csv) useactual=false
New Loadshape.Shape_86 npts=288 interval=0.0833 mult=(file=C:\2014\ENWL_Network_Creation\Feeder_Representation\Load_files_Model\Load_profiles\Load86_5min.csv) useactual=false
New Loadshape.Shape_87 npts=288 interval=0.0833 mult=(file=C:\2014\ENWL_Network_Creation\Feeder_Representation\Load_files_Model\Load_profiles\Load87_5min.csv) useactual=false
New Loadshape.Shape_88 npts=288 interval=0.0833 mult=(file=C:\2014\ENWL_Network_Creation\Feeder_Representation\Load_files_Model\Load_profiles\Load88_5min.csv) useactual=false
New Loadshape.Shape_89 npts=288 interval=0.0833 mult=(file=C:\2014\ENWL_Network_Creation\Feeder_Representation\Load_files_Model\Load_profiles\Load89_5min.csv) useactual=false
New Loadshape.Shape_90 npts=288 interval=0.0833 mult=(file=C:\2014\ENWL_Network_Creation\Feeder_Representation\Load_files_Model\Load_profiles\Load90_5min.csv) useactual=false
New Loadshape.Shape_91 npts=288 interval=0.0833 mult=(file=C:\2014\ENWL_Network_Creation\Feeder_Representation\Load_files_Model\Load_profiles\Load91_5min.csv) useactual=false
New Loadshape.Shape_92 npts=288 interval=0.0833 mult=(file=C:\2014\ENWL_Network_Creation\Feeder_Representation\Load_files_Model\Load_profiles\Load92_5min.csv) useactual=false
New Loadshape.Shape_93 npts=288 interval=0.0833 mult=(file=C:\2014\ENWL_Network_Creation\Feeder_Representation\Load_files_Model\Load_profiles\Load93_5min.csv) useactual=false
New Loadshape.Shape_94 npts=288 interval=0.0833 mult=(file=C:\2014\ENWL_Network_Creation\Feeder_Representation\Load_files_Model\Load_profiles\Load94_5min.csv) useactual=false
New Loadshape.Shape_95 npts=288 interval=0.0833 mult=(file=C:\2014\ENWL_Network_Creation\Feeder_Representation\Load_files_Model\Load_profiles\Load95_5min.csv) useactual=false
New Loadshape.Shape_96 npts=288 interval=0.0833 mult=(file=C:\2014\ENWL_Network_Creation\Feeder_Representation\Load_files_Model\Load_profiles\Load96_5min.csv) useactual=false
New Loadshape.Shape_97 npts=288 interval=0.0833 mult=(file=C:\2014\ENWL_Network_Creation\Feeder_Representation\Load_files_Model\Load_profiles\Load97_5min.csv) useactual=false
New Loadshape.Shape_98 npts=288 interval=0.0833 mult=(file=C:\2014\ENWL_Network_Creation\Feeder_Representation\Load_files_Model\Load_profiles\Load98_5min.csv) useactual=false
New Loadshape.Shape_99 npts=288 interval=0.0833 mult=(file=C:\2014\ENWL_Network_Creation\Feeder_Representation\Load_files_Model\Load_profiles\Load99_5min.csv) useactual=false
New Loadshape.Shape_100 npts=288 interval=0.0833 mult=(file=C:\2014\ENWL_Network_Creation\Feeder_Representation\Load_files_Model\Load_profiles\Load100_5min.csv) useactual=false
New Loadshape.Shape_101 npts=288 interval=0.0833 mult=(file=C:\2014\ENWL_Network_Creation\Feeder_Representation\Load_files_Model\Load_profiles\Load101_5min.csv) useactual=false
New Loadshape.Shape_102 npts=288 interval=0.0833 mult=(file=C:\2014\ENWL_Network_Creation\Feeder_Representation\Load_files_Model\Load_profiles\Load102_5min.csv) useactual=false
New Loadshape.Shape_103 npts=288 interval=0.0833 mult=(file=C:\2014\ENWL_Network_Creation\Feeder_Representation\Load_files_Model\Load_profiles\Load103_5min.csv) useactual=false
New Loadshape.Shape_104 npts=288 interval=0.0833 mult=(file=C:\2014\ENWL_Network_Creation\Feeder_Representation\Load_files_Model\Load_profiles\Load104_5min.csv) useactual=false
New Loadshape.Shape_105 npts=288 interval=0.0833 mult=(file=C:\2014\ENWL_Network_Creation\Feeder_Representation\Load_files_Model\Load_profiles\Load105_5min.csv) useactual=false
New Loadshape.Shape_106 npts=288 interval=0.0833 mult=(file=C:\2014\ENWL_Network_Creation\Feeder_Representation\Load_files_Model\Load_profiles\Load106_5min.csv) useactual=false
New Loadshape.Shape_107 npts=288 interval=0.0833 mult=(file=C:\2014\ENWL_Network_Creation\Feeder_Representation\Load_files_Model\Load_profiles\Load107_5min.csv) useactual=false
New Loadshape.Shape_108 npts=288 interval=0.0833 mult=(file=C:\2014\ENWL_Network_Creation\Feeder_Representation\Load_files_Model\Load_profiles\Load108_5min.csv) useactual=false
New Loadshape.Shape_109 npts=288 interval=0.0833 mult=(file=C:\2014\ENWL_Network_Creation\Feeder_Representation\Load_files_Model\Load_profiles\Load109_5min.csv) useactual=false
New Loadshape.Shape_110 npts=288 interval=0.0833 mult=(file=C:\2014\ENWL_Network_Creation\Feeder_Representation\Load_files_Model\Load_profiles\Load110_5min.csv) useactual=false
New Loadshape.Shape_111 npts=288 interval=0.0833 mult=(file=C:\2014\ENWL_Network_Creation\Feeder_Representation\Load_files_Model\Load_profiles\Load111_5min.csv) useactual=false
New Loadshape.Shape_112 npts=288 interval=0.0833 mult=(file=C:\2014\ENWL_Network_Creation\Feeder_Representation\Load_files_Model\Load_profiles\Load112_5min.csv) useactual=false
New Loadshape.Shape_113 npts=288 interval=0.0833 mult=(file=C:\2014\ENWL_Network_Creation\Feeder_Representation\Load_files_Model\Load_profiles\Load113_5min.csv) useactual=false
New Loadshape.Shape_114 npts=288 interval=0.0833 mult=(file=C:\2014\ENWL_Network_Creation\Feeder_Representation\Load_files_Model\Load_profiles\Load114_5min.csv) useactual=false
New Loadshape.Shape_115 npts=288 interval=0.0833 mult=(file=C:\2014\ENWL_Network_Creation\Feeder_Representation\Load_files_Model\Load_profiles\Load115_5min.csv) useactual=false
New Loadshape.Shape_116 npts=288 interval=0.0833 mult=(file=C:\2014\ENWL_Network_Creation\Feeder_Representation\Load_files_Model\Load_profiles\Load116_5min.csv) useactual=false
New Loadshape.Shape_117 npts=288 interval=0.0833 mult=(file=C:\2014\ENWL_Network_Creation\Feeder_Representation\Load_files_Model\Load_profiles\Load117_5min.csv) useactual=false
New Loadshape.Shape_118 npts=288 interval=0.0833 mult=(file=C:\2014\ENWL_Network_Creation\Feeder_Representation\Load_files_Model\Load_profiles\Load118_5min.csv) useactual=false
New Loadshape.Shape_119 npts=288 interval=0.0833 mult=(file=C:\2014\ENWL_Network_Creation\Feeder_Representation\Load_files_Model\Load_profiles\Load119_5min.csv) useactual=false
New Loadshape.Shape_120 npts=288 interval=0.0833 mult=(file=C:\2014\ENWL_Network_Creation\Feeder_Representation\Load_files_Model\Load_profiles\Load120_5min.csv) useactual=false
New Loadshape.Shape_121 npts=288 interval=0.0833 mult=(file=C:\2014\ENWL_Network_Creation\Feeder_Representation\Load_files_Model\Load_profiles\Load121_5min.csv) useactual=false
New Loadshape.Shape_122 npts=288 interval=0.0833 mult=(file=C:\2014\ENWL_Network_Creation\Feeder_Representation\Load_files_Model\Load_profiles\Load122_5min.csv) useactual=false
New Loadshape.Shape_123 npts=288 interval=0.0833 mult=(file=C:\2014\ENWL_Network_Creation\Feeder_Representation\Load_files_Model\Load_profiles\Load123_5min.csv) useactual=false
New Loadshape.Shape_124 npts=288 interval=0.0833 mult=(file=C:\2014\ENWL_Network_Creation\Feeder_Representation\Load_files_Model\Load_profiles\Load124_5min.csv) useactual=false
New Loadshape.Shape_125 npts=288 interval=0.0833 mult=(file=C:\2014\ENWL_Network_Creation\Feeder_Representation\Load_files_Model\Load_profiles\Load125_5min.csv) useactual=false
New Loadshape.Shape_126 npts=288 interval=0.0833 mult=(file=C:\2014\ENWL_Network_Creation\Feeder_Representation\Load_files_Model\Load_profiles\Load126_5min.csv) useactual=false
New Loadshape.Shape_127 npts=288 interval=0.0833 mult=(file=C:\2014\ENWL_Network_Creation\Feeder_Representation\Load_files_Model\Load_profiles\Load127_5min.csv) useactual=false
New Loadshape.Shape_128 npts=288 interval=0.0833 mult=(file=C:\2014\ENWL_Network_Creation\Feeder_Representation\Load_files_Model\Load_profiles\Load128_5min.csv) useactual=false
New Loadshape.Shape_129 npts=288 interval=0.0833 mult=(file=C:\2014\ENWL_Network_Creation\Feeder_Representation\Load_files_Model\Load_profiles\Load129_5min.csv) useactual=false
New Loadshape.Shape_130 npts=288 interval=0.0833 mult=(file=C:\2014\ENWL_Network_Creation\Feeder_Representation\Load_files_Model\Load_profiles\Load130_5min.csv) useactual=false
New Loadshape.Shape_131 npts=288 interval=0.0833 mult=(file=C:\2014\ENWL_Network_Creation\Feeder_Representation\Load_files_Model\Load_profiles\Load131_5min.csv) useactual=false
New Loadshape.Shape_132 npts=288 interval=0.0833 mult=(file=C:\2014\ENWL_Network_Creation\Feeder_Representation\Load_files_Model\Load_profiles\Load132_5min.csv) useactual=false
New Loadshape.Shape_133 npts=288 interval=0.0833 mult=(file=C:\2014\ENWL_Network_Creation\Feeder_Representation\Load_files_Model\Load_profiles\Load133_5min.csv) useactual=false
New Loadshape.Shape_134 npts=288 interval=0.0833 mult=(file=C:\2014\ENWL_Network_Creation\Feeder_Representation\Load_files_Model\Load_profiles\Load134_5min.csv) useactual=false
New Loadshape.Shape_135 npts=288 interval=0.0833 mult=(file=C:\2014\ENWL_Network_Creation\Feeder_Representation\Load_files_Model\Load_profiles\Load135_5min.csv) useactual=false
New Loadshape.Shape_136 npts=288 interval=0.0833 mult=(file=C:\2014\ENWL_Network_Creation\Feeder_Representation\Load_files_Model\Load_profiles\Load136_5min.csv) useactual=false
New Loadshape.Shape_137 npts=288 interval=0.0833 mult=(file=C:\2014\ENWL_Network_Creation\Feeder_Representation\Load_files_Model\Load_profiles\Load137_5min.csv) useactual=false
New Loadshape.Shape_138 npts=288 interval=0.0833 mult=(file=C:\2014\ENWL_Network_Creation\Feeder_Representation\Load_files_Model\Load_profiles\Load138_5min.csv) useactual=false
New Loadshape.Shape_139 npts=288 interval=0.0833 mult=(file=C:\2014\ENWL_Network_Creation\Feeder_Representation\Load_files_Model\Load_profiles\Load139_5min.csv) useactual=false
New Loadshape.Shape_140 npts=288 interval=0.0833 mult=(file=C:\2014\ENWL_Network_Creation\Feeder_Representation\Load_files_Model\Load_profiles\Load140_5min.csv) useactual=false
New Loadshape.Shape_141 npts=288 interval=0.0833 mult=(file=C:\2014\ENWL_Network_Creation\Feeder_Representation\Load_files_Model\Load_profiles\Load141_5min.csv) useactual=false
New Loadshape.Shape_142 npts=288 interval=0.0833 mult=(file=C:\2014\ENWL_Network_Creation\Feeder_Representation\Load_files_Model\Load_profiles\Load142_5min.csv) useactual=false
New Loadshape.Shape_143 npts=288 interval=0.0833 mult=(file=C:\2014\ENWL_Network_Creation\Feeder_Representation\Load_files_Model\Load_profiles\Load143_5min.csv) useactual=false
New Loadshape.Shape_144 npts=288 interval=0.0833 mult=(file=C:\2014\ENWL_Network_Creation\Feeder_Representation\Load_files_Model\Load_profiles\Load144_5min.csv) useactual=false
New Loadshape.Shape_145 npts=288 interval=0.0833 mult=(file=C:\2014\ENWL_Network_Creation\Feeder_Representation\Load_files_Model\Load_profiles\Load145_5min.csv) useactual=false
New Loadshape.Shape_146 npts=288 interval=0.0833 mult=(file=C:\2014\ENWL_Network_Creation\Feeder_Representation\Load_files_Model\Load_profiles\Load146_5min.csv) useactual=false
New Loadshape.Shape_147 npts=288 interval=0.0833 mult=(file=C:\2014\ENWL_Network_Creation\Feeder_Representation\Load_files_Model\Load_profiles\Load147_5min.csv) useactual=false
New Loadshape.Shape_148 npts=288 interval=0.0833 mult=(file=C:\2014\ENWL_Network_Creation\Feeder_Representation\Load_files_Model\Load_profiles\Load148_5min.csv) useactual=false
New Loadshape.Shape_149 npts=288 interval=0.0833 mult=(file=C:\2014\ENWL_Network_Creation\Feeder_Representation\Load_files_Model\Load_profiles\Load149_5min.csv) useactual=false
New Loadshape.Shape_150 npts=288 interval=0.0833 mult=(file=C:\2014\ENWL_Network_Creation\Feeder_Representation\Load_files_Model\Load_profiles\Load150_5min.csv) useactual=false
New Loadshape.Shape_151 npts=288 interval=0.0833 mult=(file=C:\2014\ENWL_Network_Creation\Feeder_Representation\Load_files_Model\Load_profiles\Load151_5min.csv) useactual=false
New Loadshape.Shape_152 npts=288 interval=0.0833 mult=(file=C:\2014\ENWL_Network_Creation\Feeder_Representation\Load_files_Model\Load_profiles\Load152_5min.csv) useactual=false
New Loadshape.Shape_153 npts=288 interval=0.0833 mult=(file=C:\2014\ENWL_Network_Creation\Feeder_Representation\Load_files_Model\Load_profiles\Load153_5min.csv) useactual=false
New Loadshape.Shape_154 npts=288 interval=0.0833 mult=(file=C:\2014\ENWL_Network_Creation\Feeder_Representation\Load_files_Model\Load_profiles\Load154_5min.csv) useactual=false
New Loadshape.Shape_155 npts=288 interval=0.0833 mult=(file=C:\2014\ENWL_Network_Creation\Feeder_Representation\Load_files_Model\Load_profiles\Load155_5min.csv) useactual=false
New Loadshape.Shape_156 npts=288 interval=0.0833 mult=(file=C:\2014\ENWL_Network_Creation\Feeder_Representation\Load_files_Model\Load_profiles\Load156_5min.csv) useactual=false
New Loadshape.Shape_157 npts=288 interval=0.0833 mult=(file=C:\2014\ENWL_Network_Creation\Feeder_Representation\Load_files_Model\Load_profiles\Load157_5min.csv) useactual=false
New Loadshape.Shape_158 npts=288 interval=0.0833 mult=(file=C:\2014\ENWL_Network_Creation\Feeder_Representation\Load_files_Model\Load_profiles\Load158_5min.csv) useactual=false
New Loadshape.Shape_159 npts=288 interval=0.0833 mult=(file=C:\2014\ENWL_Network_Creation\Feeder_Representation\Load_files_Model\Load_profiles\Load159_5min.csv) useactual=false
New Loadshape.Shape_160 npts=288 interval=0.0833 mult=(file=C:\2014\ENWL_Network_Creation\Feeder_Representation\Load_files_Model\Load_profiles\Load160_5min.csv) useactual=false
New Loadshape.Shape_161 npts=288 interval=0.0833 mult=(file=C:\2014\ENWL_Network_Creation\Feeder_Representation\Load_files_Model\Load_profiles\Load161_5min.csv) useactual=false
New Loadshape.Shape_162 npts=288 interval=0.0833 mult=(file=C:\2014\ENWL_Network_Creation\Feeder_Representation\Load_files_Model\Load_profiles\Load162_5min.csv) useactual=false
New Loadshape.Shape_163 npts=288 interval=0.0833 mult=(file=C:\2014\ENWL_Network_Creation\Feeder_Representation\Load_files_Model\Load_profiles\Load163_5min.csv) useactual=false
New Loadshape.Shape_164 npts=288 interval=0.0833 mult=(file=C:\2014\ENWL_Network_Creation\Feeder_Representation\Load_files_Model\Load_profiles\Load164_5min.csv) useactual=false
New Loadshape.Shape_165 npts=288 interval=0.0833 mult=(file=C:\2014\ENWL_Network_Creation\Feeder_Representation\Load_files_Model\Load_profiles\Load165_5min.csv) useactual=false
New Loadshape.Shape_166 npts=288 interval=0.0833 mult=(file=C:\2014\ENWL_Network_Creation\Feeder_Representation\Load_files_Model\Load_profiles\Load166_5min.csv) useactual=false
New Loadshape.Shape_167 npts=288 interval=0.0833 mult=(file=C:\2014\ENWL_Network_Creation\Feeder_Representation\Load_files_Model\Load_profiles\Load167_5min.csv) useactual=false
New Loadshape.Shape_168 npts=288 interval=0.0833 mult=(file=C:\2014\ENWL_Network_Creation\Feeder_Representation\Load_files_Model\Load_profiles\Load168_5min.csv) useactual=false
New Loadshape.Shape_169 npts=288 interval=0.0833 mult=(file=C:\2014\ENWL_Network_Creation\Feeder_Representation\Load_files_Model\Load_profiles\Load169_5min.csv) useactual=false
New Loadshape.Shape_170 npts=288 interval=0.0833 mult=(file=C:\2014\ENWL_Network_Creation\Feeder_Representation\Load_files_Model\Load_profiles\Load170_5min.csv) useactual=false