New Load.LOAD1 Phases=1 Bus1=270.2 kV=0.23 kW=1 PF=0.95
New Load.LOAD2 Phases=1 Bus1=494.3 kV=0.23 kW=1 PF=0.95
New Load.LOAD3 Phases=3 Bus1=632 kV=0.412 kW=3 PF=0.95
New Load.LOAD4 Phases=1 Bus1=639.3 kV=0.23 kW=1 PF=0.95
New Load.LOAD5 Phases=1 Bus1=654.1 kV=0.23 kW=1 PF=0.95
New Load.LOAD6 Phases=1 Bus1=692.3 kV=0.23 kW=1 PF=0.95
New Load.LOAD7 Phases=1 Bus1=880.3 kV=0.23 kW=1 PF=0.95
New Load.LOAD8 Phases=1 Bus1=1025.2 kV=0.23 kW=1 PF=0.95
New Load.LOAD9 Phases=1 Bus1=1049.1 kV=0.23 kW=1 PF=0.95
New Load.LOAD10 Phases=1 Bus1=1061.3 kV=0.23 kW=1 PF=0.95
New Load.LOAD11 Phases=1 Bus1=1075.3 kV=0.23 kW=1 PF=0.95
New Load.LOAD12 Phases=1 Bus1=1154.3 kV=0.23 kW=1 PF=0.95
New Load.LOAD13 Phases=1 Bus1=1227.2 kV=0.23 kW=1 PF=0.95
New Load.LOAD14 Phases=1 Bus1=1235.3 kV=0.23 kW=1 PF=0.95
New Load.LOAD15 Phases=1 Bus1=1345.1 kV=0.23 kW=1 PF=0.95
New Load.LOAD16 Phases=1 Bus1=1349.1 kV=0.23 kW=1 PF=0.95
New Load.LOAD17 Phases=1 Bus1=1383.1 kV=0.23 kW=1 PF=0.95
New Load.LOAD18 Phases=1 Bus1=1384.2 kV=0.23 kW=1 PF=0.95
New Load.LOAD19 Phases=1 Bus1=1390.3 kV=0.23 kW=1 PF=0.95
New Load.LOAD20 Phases=1 Bus1=1426.1 kV=0.23 kW=1 PF=0.95
New Load.LOAD21 Phases=1 Bus1=1467.1 kV=0.23 kW=1 PF=0.95
New Load.LOAD22 Phases=1 Bus1=1503.3 kV=0.23 kW=1 PF=0.95
New Load.LOAD23 Phases=1 Bus1=1554.3 kV=0.23 kW=1 PF=0.95
New Load.LOAD24 Phases=1 Bus1=1606.3 kV=0.23 kW=1 PF=0.95
New Load.LOAD25 Phases=1 Bus1=1617.1 kV=0.23 kW=1 PF=0.95
New Load.LOAD26 Phases=1 Bus1=1658.3 kV=0.23 kW=1 PF=0.95
New Load.LOAD27 Phases=1 Bus1=1778.1 kV=0.23 kW=1 PF=0.95
New Load.LOAD28 Phases=1 Bus1=1783.1 kV=0.23 kW=1 PF=0.95
New Load.LOAD29 Phases=1 Bus1=1794.2 kV=0.23 kW=1 PF=0.95
New Load.LOAD30 Phases=1 Bus1=1856.3 kV=0.23 kW=1 PF=0.95
New Load.LOAD31 Phases=1 Bus1=1871.2 kV=0.23 kW=1 PF=0.95
New Load.LOAD32 Phases=1 Bus1=1894.2 kV=0.23 kW=1 PF=0.95
New Load.LOAD33 Phases=1 Bus1=1895.2 kV=0.23 kW=1 PF=0.95
New Load.LOAD34 Phases=1 Bus1=1902.3 kV=0.23 kW=1 PF=0.95
New Load.LOAD35 Phases=1 Bus1=1941.1 kV=0.23 kW=1 PF=0.95
New Load.LOAD36 Phases=1 Bus1=1994.3 kV=0.23 kW=1 PF=0.95
New Load.LOAD37 Phases=1 Bus1=2132.1 kV=0.23 kW=1 PF=0.95
New Load.LOAD38 Phases=1 Bus1=2179.2 kV=0.23 kW=1 PF=0.95
New Load.LOAD39 Phases=1 Bus1=2203.2 kV=0.23 kW=1 PF=0.95
New Load.LOAD40 Phases=1 Bus1=2231.1 kV=0.23 kW=1 PF=0.95
New Load.LOAD41 Phases=1 Bus1=2249.3 kV=0.23 kW=1 PF=0.95
New Load.LOAD42 Phases=1 Bus1=2250.3 kV=0.23 kW=1 PF=0.95
New Load.LOAD43 Phases=1 Bus1=2259.2 kV=0.23 kW=1 PF=0.95
New Load.LOAD44 Phases=1 Bus1=2290.2 kV=0.23 kW=1 PF=0.95
New Load.LOAD45 Phases=1 Bus1=2309.2 kV=0.23 kW=1 PF=0.95
New Load.LOAD46 Phases=1 Bus1=2351.3 kV=0.23 kW=1 PF=0.95
New Load.LOAD47 Phases=1 Bus1=2396.3 kV=0.23 kW=1 PF=0.95
New Load.LOAD48 Phases=1 Bus1=2408.3 kV=0.23 kW=1 PF=0.95
New Load.LOAD49 Phases=1 Bus1=2438.3 kV=0.23 kW=1 PF=0.95
New Load.LOAD50 Phases=1 Bus1=2479.3 kV=0.23 kW=1 PF=0.95
New Load.LOAD51 Phases=1 Bus1=2498.1 kV=0.23 kW=1 PF=0.95
New Load.LOAD52 Phases=1 Bus1=2516.3 kV=0.23 kW=1 PF=0.95
New Load.LOAD53 Phases=1 Bus1=2535.3 kV=0.23 kW=1 PF=0.95
New Load.LOAD54 Phases=1 Bus1=2542.1 kV=0.23 kW=1 PF=0.95
New Load.LOAD55 Phases=1 Bus1=2545.3 kV=0.23 kW=1 PF=0.95
New Load.LOAD56 Phases=1 Bus1=2546.3 kV=0.23 kW=1 PF=0.95
New Load.LOAD57 Phases=1 Bus1=2572.2 kV=0.23 kW=1 PF=0.95
New Load.LOAD58 Phases=1 Bus1=2596.1 kV=0.23 kW=1 PF=0.95
New Load.LOAD59 Phases=1 Bus1=2604.1 kV=0.23 kW=1 PF=0.95
New Load.LOAD60 Phases=1 Bus1=2606.2 kV=0.23 kW=1 PF=0.95
New Load.LOAD61 Phases=1 Bus1=2622.3 kV=0.23 kW=1 PF=0.95
New Load.LOAD62 Phases=1 Bus1=2626.3 kV=0.23 kW=1 PF=0.95
New Load.LOAD63 Phases=1 Bus1=2636.1 kV=0.23 kW=1 PF=0.95
New Load.LOAD64 Phases=1 Bus1=2684.3 kV=0.23 kW=1 PF=0.95
New Load.LOAD65 Phases=1 Bus1=2687.2 kV=0.23 kW=1 PF=0.95
New Load.LOAD66 Phases=1 Bus1=2710.3 kV=0.23 kW=1 PF=0.95
New Load.LOAD67 Phases=1 Bus1=2712.2 kV=0.23 kW=1 PF=0.95
New Load.LOAD68 Phases=1 Bus1=2800.3 kV=0.23 kW=1 PF=0.95
New Load.LOAD69 Phases=1 Bus1=2816.1 kV=0.23 kW=1 PF=0.95
New Load.LOAD70 Phases=1 Bus1=2828.3 kV=0.23 kW=1 PF=0.95
New Load.LOAD71 Phases=1 Bus1=2832.2 kV=0.23 kW=1 PF=0.95
New Load.LOAD72 Phases=1 Bus1=2859.3 kV=0.23 kW=1 PF=0.95
New Load.LOAD73 Phases=1 Bus1=2889.3 kV=0.23 kW=1 PF=0.95
New Load.LOAD74 Phases=1 Bus1=2890.3 kV=0.23 kW=1 PF=0.95
New Load.LOAD75 Phases=1 Bus1=2909.3 kV=0.23 kW=1 PF=0.95
New Load.LOAD76 Phases=1 Bus1=2941.1 kV=0.23 kW=1 PF=0.95
New Load.LOAD77 Phases=1 Bus1=2978.3 kV=0.23 kW=1 PF=0.95
New Load.LOAD78 Phases=1 Bus1=3039.3 kV=0.23 kW=1 PF=0.95
New Load.LOAD79 Phases=1 Bus1=3044.2 kV=0.23 kW=1 PF=0.95
New Load.LOAD80 Phases=1 Bus1=3074.2 kV=0.23 kW=1 PF=0.95
New Load.LOAD81 Phases=1 Bus1=3079.2 kV=0.23 kW=1 PF=0.95
New Load.LOAD82 Phases=1 Bus1=3089.3 kV=0.23 kW=1 PF=0.95
New Load.LOAD83 Phases=1 Bus1=3144.3 kV=0.23 kW=1 PF=0.95
New Load.LOAD84 Phases=1 Bus1=3178.1 kV=0.23 kW=1 PF=0.95
New Load.LOAD85 Phases=1 Bus1=3240.2 kV=0.23 kW=1 PF=0.95
New Load.LOAD86 Phases=1 Bus1=3244.1 kV=0.23 kW=1 PF=0.95
New Load.LOAD87 Phases=1 Bus1=3245.2 kV=0.23 kW=1 PF=0.95
New Load.LOAD88 Phases=1 Bus1=3259.3 kV=0.23 kW=1 PF=0.95
New Load.LOAD89 Phases=1 Bus1=3277.3 kV=0.23 kW=1 PF=0.95
New Load.LOAD90 Phases=1 Bus1=3285.1 kV=0.23 kW=1 PF=0.95
New Load.LOAD91 Phases=1 Bus1=3287.3 kV=0.23 kW=1 PF=0.95
New Load.LOAD92 Phases=1 Bus1=3288.3 kV=0.23 kW=1 PF=0.95
New Load.LOAD93 Phases=1 Bus1=3321.1 kV=0.23 kW=1 PF=0.95
New Load.LOAD94 Phases=1 Bus1=3351.2 kV=0.23 kW=1 PF=0.95
New Load.LOAD95 Phases=1 Bus1=3371.2 kV=0.23 kW=1 PF=0.95
New Load.LOAD96 Phases=1 Bus1=3372.2 kV=0.23 kW=1 PF=0.95
New Load.LOAD97 Phases=1 Bus1=3373.2 kV=0.23 kW=1 PF=0.95
New Load.LOAD98 Phases=1 Bus1=3374.2 kV=0.23 kW=1 PF=0.95
New Load.LOAD99 Phases=1 Bus1=3375.2 kV=0.23 kW=1 PF=0.95
New Load.LOAD100 Phases=1 Bus1=3376.2 kV=0.23 kW=1 PF=0.95
New Load.LOAD101 Phases=1 Bus1=3377.2 kV=0.23 kW=1 PF=0.95
New Load.LOAD102 Phases=1 Bus1=3378.2 kV=0.23 kW=1 PF=0.95
New Load.LOAD103 Phases=1 Bus1=3379.2 kV=0.23 kW=1 PF=0.95
New Load.LOAD104 Phases=1 Bus1=3380.2 kV=0.23 kW=1 PF=0.95
New Load.LOAD105 Phases=1 Bus1=3381.2 kV=0.23 kW=1 PF=0.95
New Load.LOAD106 Phases=1 Bus1=3382.2 kV=0.23 kW=1 PF=0.95
New Load.LOAD107 Phases=1 Bus1=3383.2 kV=0.23 kW=1 PF=0.95
New Load.LOAD108 Phases=1 Bus1=3384.2 kV=0.23 kW=1 PF=0.95
New Load.LOAD109 Phases=1 Bus1=3385.2 kV=0.23 kW=1 PF=0.95
New Load.LOAD110 Phases=1 Bus1=3386.2 kV=0.23 kW=1 PF=0.95
New Load.LOAD111 Phases=1 Bus1=3387.2 kV=0.23 kW=1 PF=0.95
New Load.LOAD112 Phases=1 Bus1=3388.2 kV=0.23 kW=1 PF=0.95
New Load.LOAD113 Phases=1 Bus1=3389.2 kV=0.23 kW=1 PF=0.95
New Load.LOAD114 Phases=1 Bus1=3390.2 kV=0.23 kW=1 PF=0.95
New Load.LOAD115 Phases=1 Bus1=3391.2 kV=0.23 kW=1 PF=0.95
New Load.LOAD116 Phases=1 Bus1=3392.2 kV=0.23 kW=1 PF=0.95
New Load.LOAD117 Phases=1 Bus1=3393.2 kV=0.23 kW=1 PF=0.95
New Load.LOAD118 Phases=1 Bus1=3394.2 kV=0.23 kW=1 PF=0.95
New Load.LOAD119 Phases=1 Bus1=3395.2 kV=0.23 kW=1 PF=0.95
New Load.LOAD120 Phases=1 Bus1=3396.2 kV=0.23 kW=1 PF=0.95
New Load.LOAD121 Phases=1 Bus1=3397.2 kV=0.23 kW=1 PF=0.95
New Load.LOAD122 Phases=1 Bus1=3398.2 kV=0.23 kW=1 PF=0.95
New Load.LOAD123 Phases=1 Bus1=3399.2 kV=0.23 kW=1 PF=0.95
New Load.LOAD124 Phases=1 Bus1=3400.2 kV=0.23 kW=1 PF=0.95
New Load.LOAD125 Phases=1 Bus1=3401.2 kV=0.23 kW=1 PF=0.95
New Load.LOAD126 Phases=1 Bus1=3402.2 kV=0.23 kW=1 PF=0.95
New Load.LOAD127 Phases=1 Bus1=3403.2 kV=0.23 kW=1 PF=0.95
New Load.LOAD128 Phases=1 Bus1=3404.2 kV=0.23 kW=1 PF=0.95
New Load.LOAD129 Phases=1 Bus1=3405.2 kV=0.23 kW=1 PF=0.95
New Load.LOAD130 Phases=1 Bus1=3406.2 kV=0.23 kW=1 PF=0.95
New Load.LOAD131 Phases=1 Bus1=3407.2 kV=0.23 kW=1 PF=0.95
New Load.LOAD132 Phases=1 Bus1=3408.2 kV=0.23 kW=1 PF=0.95
New Load.LOAD133 Phases=1 Bus1=3409.2 kV=0.23 kW=1 PF=0.95
New Load.LOAD134 Phases=1 Bus1=3410.2 kV=0.23 kW=1 PF=0.95
New Load.LOAD135 Phases=1 Bus1=3431.3 kV=0.23 kW=1 PF=0.95
New Load.LOAD136 Phases=1 Bus1=3438.1 kV=0.23 kW=1 PF=0.95
New Load.LOAD137 Phases=1 Bus1=3490.2 kV=0.23 kW=1 PF=0.95
New Load.LOAD138 Phases=1 Bus1=3506.3 kV=0.23 kW=1 PF=0.95
New Load.LOAD139 Phases=1 Bus1=3508.1 kV=0.23 kW=1 PF=0.95
New Load.LOAD140 Phases=1 Bus1=3522.3 kV=0.23 kW=1 PF=0.95
New Load.LOAD141 Phases=1 Bus1=3528.2 kV=0.23 kW=1 PF=0.95
New Load.LOAD142 Phases=1 Bus1=3555.1 kV=0.23 kW=1 PF=0.95
New Load.LOAD143 Phases=1 Bus1=3557.2 kV=0.23 kW=1 PF=0.95
New Load.LOAD144 Phases=1 Bus1=3570.2 kV=0.23 kW=1 PF=0.95
New Load.LOAD145 Phases=1 Bus1=3580.3 kV=0.23 kW=1 PF=0.95
New Load.LOAD146 Phases=1 Bus1=3623.3 kV=0.23 kW=1 PF=0.95
New Load.LOAD147 Phases=1 Bus1=3627.3 kV=0.23 kW=1 PF=0.95
New Load.LOAD148 Phases=1 Bus1=3647.3 kV=0.23 kW=1 PF=0.95
New Load.LOAD149 Phases=1 Bus1=3680.2 kV=0.23 kW=1 PF=0.95
New Load.LOAD150 Phases=1 Bus1=3696.1 kV=0.23 kW=1 PF=0.95
New Load.LOAD151 Phases=1 Bus1=3699.1 kV=0.23 kW=1 PF=0.95
New Load.LOAD152 Phases=1 Bus1=3705.2 kV=0.23 kW=1 PF=0.95
New Load.LOAD153 Phases=1 Bus1=3706.2 kV=0.23 kW=1 PF=0.95
New Load.LOAD154 Phases=1 Bus1=3720.1 kV=0.23 kW=1 PF=0.95
New Load.LOAD155 Phases=1 Bus1=3732.3 kV=0.23 kW=1 PF=0.95
New Load.LOAD156 Phases=1 Bus1=3741.3 kV=0.23 kW=1 PF=0.95
New Load.LOAD157 Phases=1 Bus1=3765.2 kV=0.23 kW=1 PF=0.95
New Load.LOAD158 Phases=1 Bus1=3766.1 kV=0.23 kW=1 PF=0.95
New Load.LOAD159 Phases=1 Bus1=3771.2 kV=0.23 kW=1 PF=0.95
New Load.LOAD160 Phases=1 Bus1=3791.2 kV=0.23 kW=1 PF=0.95
New Load.LOAD161 Phases=1 Bus1=3792.3 kV=0.23 kW=1 PF=0.95
New Load.LOAD162 Phases=1 Bus1=3806.1 kV=0.23 kW=1 PF=0.95
New Load.LOAD163 Phases=1 Bus1=3807.2 kV=0.23 kW=1 PF=0.95
New Load.LOAD164 Phases=1 Bus1=3887.2 kV=0.23 kW=1 PF=0.95
New Load.LOAD165 Phases=1 Bus1=3902.2 kV=0.23 kW=1 PF=0.95
New Load.LOAD166 Phases=1 Bus1=3904.3 kV=0.23 kW=1 PF=0.95
New Load.LOAD167 Phases=1 Bus1=3905.1 kV=0.23 kW=1 PF=0.95
New Load.LOAD168 Phases=1 Bus1=3937.2 kV=0.23 kW=1 PF=0.95
New Load.LOAD169 Phases=1 Bus1=3956.1 kV=0.23 kW=1 PF=0.95
New Load.LOAD170 Phases=1 Bus1=4051.1 kV=0.23 kW=1 PF=0.95
New Load.LOAD171 Phases=1 Bus1=4060.2 kV=0.23 kW=1 PF=0.95
New Load.LOAD172 Phases=1 Bus1=4075.2 kV=0.23 kW=1 PF=0.95
New Load.LOAD173 Phases=1 Bus1=4085.3 kV=0.23 kW=1 PF=0.95
New Load.LOAD174 Phases=1 Bus1=4101.3 kV=0.23 kW=1 PF=0.95
New Load.LOAD175 Phases=1 Bus1=4108.2 kV=0.23 kW=1 PF=0.95
New Load.LOAD176 Phases=1 Bus1=4109.2 kV=0.23 kW=1 PF=0.95
New Load.LOAD177 Phases=1 Bus1=4123.1 kV=0.23 kW=1 PF=0.95
New Load.LOAD178 Phases=1 Bus1=4124.2 kV=0.23 kW=1 PF=0.95
New Load.LOAD179 Phases=1 Bus1=4166.2 kV=0.23 kW=1 PF=0.95
New Load.LOAD180 Phases=1 Bus1=4188.1 kV=0.23 kW=1 PF=0.95
New Load.LOAD181 Phases=1 Bus1=4202.3 kV=0.23 kW=1 PF=0.95
New Load.LOAD182 Phases=1 Bus1=4210.3 kV=0.23 kW=1 PF=0.95
New Load.LOAD183 Phases=1 Bus1=4232.2 kV=0.23 kW=1 PF=0.95
New Load.LOAD184 Phases=1 Bus1=4250.3 kV=0.23 kW=1 PF=0.95
New Load.LOAD185 Phases=1 Bus1=4251.2 kV=0.23 kW=1 PF=0.95
New Load.LOAD186 Phases=1 Bus1=4270.2 kV=0.23 kW=1 PF=0.95
New Load.LOAD187 Phases=1 Bus1=4299.2 kV=0.23 kW=1 PF=0.95
New Load.LOAD188 Phases=1 Bus1=4305.3 kV=0.23 kW=1 PF=0.95
New Load.LOAD189 Phases=1 Bus1=4308.2 kV=0.23 kW=1 PF=0.95
New Load.LOAD190 Phases=1 Bus1=4318.1 kV=0.23 kW=1 PF=0.95
New Load.LOAD191 Phases=1 Bus1=4337.3 kV=0.23 kW=1 PF=0.95
New Load.LOAD192 Phases=1 Bus1=4363.3 kV=0.23 kW=1 PF=0.95
New Load.LOAD193 Phases=1 Bus1=4396.2 kV=0.23 kW=1 PF=0.95
New Load.LOAD194 Phases=1 Bus1=4431.2 kV=0.23 kW=1 PF=0.95
New Load.LOAD195 Phases=1 Bus1=4439.1 kV=0.23 kW=1 PF=0.95
New Load.LOAD196 Phases=1 Bus1=4452.2 kV=0.23 kW=1 PF=0.95
New Load.LOAD197 Phases=1 Bus1=4480.2 kV=0.23 kW=1 PF=0.95
New Load.LOAD198 Phases=1 Bus1=4497.3 kV=0.23 kW=1 PF=0.95
New Load.LOAD199 Phases=1 Bus1=4562.3 kV=0.23 kW=1 PF=0.95
New Load.LOAD200 Phases=1 Bus1=4584.3 kV=0.23 kW=1 PF=0.95
New Load.LOAD201 Phases=1 Bus1=4585.1 kV=0.23 kW=1 PF=0.95
New Load.LOAD202 Phases=1 Bus1=4586.2 kV=0.23 kW=1 PF=0.95
New Load.LOAD203 Phases=1 Bus1=4587.3 kV=0.23 kW=1 PF=0.95
New Load.LOAD204 Phases=1 Bus1=4588.1 kV=0.23 kW=1 PF=0.95
New Load.LOAD205 Phases=1 Bus1=4589.2 kV=0.23 kW=1 PF=0.95
New Load.LOAD206 Phases=1 Bus1=4590.3 kV=0.23 kW=1 PF=0.95
New Load.LOAD207 Phases=1 Bus1=4591.1 kV=0.23 kW=1 PF=0.95
New Load.LOAD208 Phases=1 Bus1=4592.2 kV=0.23 kW=1 PF=0.95
New Load.LOAD209 Phases=1 Bus1=4593.3 kV=0.23 kW=1 PF=0.95
New Load.LOAD210 Phases=1 Bus1=4594.1 kV=0.23 kW=1 PF=0.95
New Load.LOAD211 Phases=1 Bus1=4595.2 kV=0.23 kW=1 PF=0.95
New Load.LOAD212 Phases=1 Bus1=4596.3 kV=0.23 kW=1 PF=0.95
New Load.LOAD213 Phases=1 Bus1=4597.1 kV=0.23 kW=1 PF=0.95
New Load.LOAD214 Phases=1 Bus1=4674.2 kV=0.23 kW=1 PF=0.95
New Load.LOAD215 Phases=1 Bus1=4696.3 kV=0.23 kW=1 PF=0.95
New Load.LOAD216 Phases=1 Bus1=4697.2 kV=0.23 kW=1 PF=0.95
New Load.LOAD217 Phases=1 Bus1=4715.1 kV=0.23 kW=1 PF=0.95
New Load.LOAD218 Phases=1 Bus1=4725.3 kV=0.23 kW=1 PF=0.95
New Load.LOAD219 Phases=1 Bus1=4840.2 kV=0.23 kW=1 PF=0.95
New Load.LOAD220 Phases=1 Bus1=4853.2 kV=0.23 kW=1 PF=0.95
New Load.LOAD221 Phases=1 Bus1=4854.2 kV=0.23 kW=1 PF=0.95
New Load.LOAD222 Phases=1 Bus1=4868.2 kV=0.23 kW=1 PF=0.95
New Load.LOAD223 Phases=1 Bus1=4876.1 kV=0.23 kW=1 PF=0.95
New Load.LOAD224 Phases=1 Bus1=4908.3 kV=0.23 kW=1 PF=0.95
New Load.LOAD225 Phases=1 Bus1=4909.3 kV=0.23 kW=1 PF=0.95
New Load.LOAD226 Phases=1 Bus1=4920.1 kV=0.23 kW=1 PF=0.95
New Load.LOAD227 Phases=1 Bus1=4924.1 kV=0.23 kW=1 PF=0.95
New Load.LOAD228 Phases=1 Bus1=4938.1 kV=0.23 kW=1 PF=0.95
New Load.LOAD229 Phases=1 Bus1=4946.2 kV=0.23 kW=1 PF=0.95
New Load.LOAD230 Phases=1 Bus1=4972.1 kV=0.23 kW=1 PF=0.95
New Load.LOAD231 Phases=1 Bus1=4976.1 kV=0.23 kW=1 PF=0.95
New Load.LOAD232 Phases=1 Bus1=5002.2 kV=0.23 kW=1 PF=0.95
New Load.LOAD233 Phases=1 Bus1=5038.3 kV=0.23 kW=1 PF=0.95
New Load.LOAD234 Phases=1 Bus1=5057.2 kV=0.23 kW=1 PF=0.95
New Load.LOAD235 Phases=1 Bus1=5058.2 kV=0.23 kW=1 PF=0.95
New Load.LOAD236 Phases=1 Bus1=5070.2 kV=0.23 kW=1 PF=0.95
New Load.LOAD237 Phases=1 Bus1=5071.3 kV=0.23 kW=1 PF=0.95
New Load.LOAD238 Phases=1 Bus1=5086.2 kV=0.23 kW=1 PF=0.95
New Load.LOAD239 Phases=1 Bus1=5090.1 kV=0.23 kW=1 PF=0.95
New Load.LOAD240 Phases=1 Bus1=5091.1 kV=0.23 kW=1 PF=0.95
New Load.LOAD241 Phases=1 Bus1=5149.3 kV=0.23 kW=1 PF=0.95
New Load.LOAD242 Phases=1 Bus1=5190.3 kV=0.23 kW=1 PF=0.95
New Load.LOAD243 Phases=1 Bus1=5191.1 kV=0.23 kW=1 PF=0.95
New Load.LOAD244 Phases=1 Bus1=5232.3 kV=0.23 kW=1 PF=0.95
New Load.LOAD245 Phases=1 Bus1=5256.3 kV=0.23 kW=1 PF=0.95
New Load.LOAD246 Phases=1 Bus1=5257.3 kV=0.23 kW=1 PF=0.95
New Load.LOAD247 Phases=1 Bus1=5259.2 kV=0.23 kW=1 PF=0.95
New Load.LOAD248 Phases=1 Bus1=5263.2 kV=0.23 kW=1 PF=0.95
New Load.LOAD249 Phases=1 Bus1=5343.2 kV=0.23 kW=1 PF=0.95
New Load.LOAD250 Phases=1 Bus1=5374.3 kV=0.23 kW=1 PF=0.95
New Load.LOAD251 Phases=1 Bus1=5388.3 kV=0.23 kW=1 PF=0.95
New Load.LOAD252 Phases=1 Bus1=5400.1 kV=0.23 kW=1 PF=0.95
New Load.LOAD253 Phases=1 Bus1=5417.2 kV=0.23 kW=1 PF=0.95
New Load.LOAD254 Phases=1 Bus1=5433.3 kV=0.23 kW=1 PF=0.95
New Load.LOAD255 Phases=1 Bus1=5445.1 kV=0.23 kW=1 PF=0.95
New Load.LOAD256 Phases=1 Bus1=5489.3 kV=0.23 kW=1 PF=0.95
New Load.LOAD257 Phases=1 Bus1=5512.3 kV=0.23 kW=1 PF=0.95
New Load.LOAD258 Phases=1 Bus1=5531.3 kV=0.23 kW=1 PF=0.95
New Load.LOAD259 Phases=1 Bus1=5573.2 kV=0.23 kW=1 PF=0.95
New Load.LOAD260 Phases=1 Bus1=5575.3 kV=0.23 kW=1 PF=0.95
New Load.LOAD261 Phases=1 Bus1=5586.2 kV=0.23 kW=1 PF=0.95
New Load.LOAD262 Phases=1 Bus1=5596.2 kV=0.23 kW=1 PF=0.95
New Load.LOAD263 Phases=1 Bus1=5700.2 kV=0.23 kW=1 PF=0.95
New Load.LOAD264 Phases=1 Bus1=5752.1 kV=0.23 kW=1 PF=0.95
New Load.LOAD265 Phases=1 Bus1=5842.1 kV=0.23 kW=1 PF=0.95
New Load.LOAD266 Phases=1 Bus1=5861.2 kV=0.23 kW=1 PF=0.95
New Load.LOAD267 Phases=1 Bus1=5932.3 kV=0.23 kW=1 PF=0.95
New Load.LOAD268 Phases=1 Bus1=6069.3 kV=0.23 kW=1 PF=0.95
New Load.LOAD269 Phases=1 Bus1=6094.3 kV=0.23 kW=1 PF=0.95
New Load.LOAD270 Phases=1 Bus1=6119.1 kV=0.23 kW=1 PF=0.95
New Load.LOAD271 Phases=1 Bus1=6162.2 kV=0.23 kW=1 PF=0.95
New Load.LOAD272 Phases=1 Bus1=6237.3 kV=0.23 kW=1 PF=0.95
New Load.LOAD273 Phases=1 Bus1=6249.2 kV=0.23 kW=1 PF=0.95
New Load.LOAD274 Phases=1 Bus1=6334.3 kV=0.23 kW=1 PF=0.95
New Load.LOAD275 Phases=1 Bus1=6440.1 kV=0.23 kW=1 PF=0.95
New Load.LOAD276 Phases=1 Bus1=6450.3 kV=0.23 kW=1 PF=0.95
New Load.LOAD277 Phases=1 Bus1=6466.3 kV=0.23 kW=1 PF=0.95
New Load.LOAD278 Phases=1 Bus1=6477.1 kV=0.23 kW=1 PF=0.95
New Load.LOAD279 Phases=1 Bus1=6548.2 kV=0.23 kW=1 PF=0.95
New Load.LOAD280 Phases=1 Bus1=6623.2 kV=0.23 kW=1 PF=0.95
New Load.LOAD281 Phases=1 Bus1=6629.3 kV=0.23 kW=1 PF=0.95
New Load.LOAD282 Phases=1 Bus1=6638.2 kV=0.23 kW=1 PF=0.95
New Load.LOAD283 Phases=1 Bus1=6677.1 kV=0.23 kW=1 PF=0.95
New Load.LOAD284 Phases=1 Bus1=6700.1 kV=0.23 kW=1 PF=0.95
New Load.LOAD285 Phases=1 Bus1=6731.3 kV=0.23 kW=1 PF=0.95
New Load.LOAD286 Phases=1 Bus1=6767.1 kV=0.23 kW=1 PF=0.95
New Load.LOAD287 Phases=1 Bus1=6768.2 kV=0.23 kW=1 PF=0.95
New Load.LOAD288 Phases=1 Bus1=6769.3 kV=0.23 kW=1 PF=0.95
New Load.LOAD289 Phases=1 Bus1=6809.1 kV=0.23 kW=1 PF=0.95
New Load.LOAD290 Phases=1 Bus1=6811.2 kV=0.23 kW=1 PF=0.95
New Load.LOAD291 Phases=1 Bus1=6856.1 kV=0.23 kW=1 PF=0.95
New Load.LOAD292 Phases=1 Bus1=6877.3 kV=0.23 kW=1 PF=0.95
New Load.LOAD293 Phases=1 Bus1=6881.1 kV=0.23 kW=1 PF=0.95
New Load.LOAD294 Phases=1 Bus1=6894.1 kV=0.23 kW=1 PF=0.95
New Load.LOAD295 Phases=1 Bus1=6896.1 kV=0.23 kW=1 PF=0.95
New Load.LOAD296 Phases=1 Bus1=6936.1 kV=0.23 kW=1 PF=0.95
New Load.LOAD297 Phases=1 Bus1=6945.1 kV=0.23 kW=1 PF=0.95
New Load.LOAD298 Phases=1 Bus1=6948.2 kV=0.23 kW=1 PF=0.95
New Load.LOAD299 Phases=1 Bus1=6967.1 kV=0.23 kW=1 PF=0.95
New Load.LOAD300 Phases=1 Bus1=6980.2 kV=0.23 kW=1 PF=0.95
New Load.LOAD301 Phases=1 Bus1=6983.1 kV=0.23 kW=1 PF=0.95
New Load.LOAD302 Phases=1 Bus1=7022.2 kV=0.23 kW=1 PF=0.95