New Load.LOAD1 Phases=1 Bus1=36.1 kV=0.23 kW=1 PF=0.95
New Load.LOAD2 Phases=1 Bus1=77.2 kV=0.23 kW=1 PF=0.95
New Load.LOAD3 Phases=1 Bus1=123.3 kV=0.23 kW=1 PF=0.95
New Load.LOAD4 Phases=1 Bus1=195.3 kV=0.23 kW=1 PF=0.95
New Load.LOAD5 Phases=1 Bus1=320.3 kV=0.23 kW=1 PF=0.95
New Load.LOAD6 Phases=1 Bus1=324.1 kV=0.23 kW=1 PF=0.95
New Load.LOAD7 Phases=1 Bus1=339.2 kV=0.23 kW=1 PF=0.95
New Load.LOAD8 Phases=1 Bus1=343.1 kV=0.23 kW=1 PF=0.95
New Load.LOAD9 Phases=1 Bus1=397.1 kV=0.23 kW=1 PF=0.95
New Load.LOAD10 Phases=1 Bus1=450.3 kV=0.23 kW=1 PF=0.95
New Load.LOAD11 Phases=1 Bus1=456.1 kV=0.23 kW=1 PF=0.95
New Load.LOAD12 Phases=1 Bus1=483.3 kV=0.23 kW=1 PF=0.95
New Load.LOAD13 Phases=1 Bus1=535.3 kV=0.23 kW=1 PF=0.95
New Load.LOAD14 Phases=1 Bus1=545.1 kV=0.23 kW=1 PF=0.95
New Load.LOAD15 Phases=1 Bus1=546.2 kV=0.23 kW=1 PF=0.95
New Load.LOAD16 Phases=1 Bus1=564.3 kV=0.23 kW=1 PF=0.95
New Load.LOAD17 Phases=1 Bus1=577.3 kV=0.23 kW=1 PF=0.95
New Load.LOAD18 Phases=1 Bus1=578.3 kV=0.23 kW=1 PF=0.95
New Load.LOAD19 Phases=1 Bus1=598.3 kV=0.23 kW=1 PF=0.95
New Load.LOAD20 Phases=1 Bus1=620.3 kV=0.23 kW=1 PF=0.95
New Load.LOAD21 Phases=1 Bus1=626.3 kV=0.23 kW=1 PF=0.95
New Load.LOAD22 Phases=1 Bus1=648.3 kV=0.23 kW=1 PF=0.95
New Load.LOAD23 Phases=1 Bus1=654.3 kV=0.23 kW=1 PF=0.95
New Load.LOAD24 Phases=1 Bus1=664.1 kV=0.23 kW=1 PF=0.95
New Load.LOAD25 Phases=1 Bus1=670.1 kV=0.23 kW=1 PF=0.95
New Load.LOAD26 Phases=1 Bus1=675.3 kV=0.23 kW=1 PF=0.95
New Load.LOAD27 Phases=1 Bus1=676.3 kV=0.23 kW=1 PF=0.95
New Load.LOAD28 Phases=1 Bus1=748.3 kV=0.23 kW=1 PF=0.95
New Load.LOAD29 Phases=1 Bus1=749.3 kV=0.23 kW=1 PF=0.95
New Load.LOAD30 Phases=1 Bus1=761.2 kV=0.23 kW=1 PF=0.95
New Load.LOAD31 Phases=1 Bus1=801.1 kV=0.23 kW=1 PF=0.95
New Load.LOAD32 Phases=1 Bus1=809.3 kV=0.23 kW=1 PF=0.95
New Load.LOAD33 Phases=1 Bus1=810.3 kV=0.23 kW=1 PF=0.95
New Load.LOAD34 Phases=1 Bus1=812.1 kV=0.23 kW=1 PF=0.95
New Load.LOAD35 Phases=1 Bus1=846.3 kV=0.23 kW=1 PF=0.95
New Load.LOAD36 Phases=1 Bus1=878.2 kV=0.23 kW=1 PF=0.95
New Load.LOAD37 Phases=1 Bus1=879.3 kV=0.23 kW=1 PF=0.95
New Load.LOAD38 Phases=1 Bus1=880.1 kV=0.23 kW=1 PF=0.95
New Load.LOAD39 Phases=1 Bus1=881.2 kV=0.23 kW=1 PF=0.95
New Load.LOAD40 Phases=1 Bus1=882.3 kV=0.23 kW=1 PF=0.95
New Load.LOAD41 Phases=1 Bus1=883.1 kV=0.23 kW=1 PF=0.95
New Load.LOAD42 Phases=1 Bus1=884.2 kV=0.23 kW=1 PF=0.95
New Load.LOAD43 Phases=1 Bus1=955.2 kV=0.23 kW=1 PF=0.95