New Load.LOAD1 Phases=1 Bus1=409.2 kV=0.23 kW=1 PF=0.95
New Load.LOAD2 Phases=1 Bus1=437.1 kV=0.23 kW=1 PF=0.95
New Load.LOAD3 Phases=1 Bus1=438.2 kV=0.23 kW=1 PF=0.95
New Load.LOAD4 Phases=1 Bus1=439.3 kV=0.23 kW=1 PF=0.95
New Load.LOAD5 Phases=1 Bus1=469.1 kV=0.23 kW=1 PF=0.95
New Load.LOAD6 Phases=1 Bus1=521.1 kV=0.23 kW=1 PF=0.95
New Load.LOAD7 Phases=1 Bus1=570.3 kV=0.23 kW=1 PF=0.95
New Load.LOAD8 Phases=1 Bus1=602.2 kV=0.23 kW=1 PF=0.95
New Load.LOAD9 Phases=1 Bus1=623.2 kV=0.23 kW=1 PF=0.95
New Load.LOAD10 Phases=1 Bus1=631.3 kV=0.23 kW=1 PF=0.95
New Load.LOAD11 Phases=1 Bus1=662.2 kV=0.23 kW=1 PF=0.95
New Load.LOAD12 Phases=1 Bus1=708.1 kV=0.23 kW=1 PF=0.95
New Load.LOAD13 Phases=1 Bus1=723.3 kV=0.23 kW=1 PF=0.95
New Load.LOAD14 Phases=1 Bus1=731.1 kV=0.23 kW=1 PF=0.95
New Load.LOAD15 Phases=1 Bus1=764.2 kV=0.23 kW=1 PF=0.95
New Load.LOAD16 Phases=1 Bus1=799.3 kV=0.23 kW=1 PF=0.95
New Load.LOAD17 Phases=1 Bus1=828.2 kV=0.23 kW=1 PF=0.95
New Load.LOAD18 Phases=1 Bus1=842.2 kV=0.23 kW=1 PF=0.95
New Load.LOAD19 Phases=1 Bus1=894.3 kV=0.23 kW=1 PF=0.95
New Load.LOAD20 Phases=1 Bus1=984.2 kV=0.23 kW=1 PF=0.95
New Load.LOAD21 Phases=1 Bus1=1192.3 kV=0.23 kW=1 PF=0.95
New Load.LOAD22 Phases=1 Bus1=1212.1 kV=0.23 kW=1 PF=0.95
New Load.LOAD23 Phases=1 Bus1=1232.2 kV=0.23 kW=1 PF=0.95
New Load.LOAD24 Phases=1 Bus1=1234.3 kV=0.23 kW=1 PF=0.95
New Load.LOAD25 Phases=1 Bus1=1250.1 kV=0.23 kW=1 PF=0.95
New Load.LOAD26 Phases=1 Bus1=1283.2 kV=0.23 kW=1 PF=0.95
New Load.LOAD27 Phases=1 Bus1=1302.3 kV=0.23 kW=1 PF=0.95
New Load.LOAD28 Phases=1 Bus1=1507.3 kV=0.23 kW=1 PF=0.95
New Load.LOAD29 Phases=1 Bus1=1551.1 kV=0.23 kW=1 PF=0.95
New Load.LOAD30 Phases=1 Bus1=1591.2 kV=0.23 kW=1 PF=0.95
New Load.LOAD31 Phases=1 Bus1=1626.3 kV=0.23 kW=1 PF=0.95
New Load.LOAD32 Phases=1 Bus1=1636.3 kV=0.23 kW=1 PF=0.95
New Load.LOAD33 Phases=1 Bus1=1648.3 kV=0.23 kW=1 PF=0.95
New Load.LOAD34 Phases=1 Bus1=1723.3 kV=0.23 kW=1 PF=0.95
New Load.LOAD35 Phases=1 Bus1=1764.2 kV=0.23 kW=1 PF=0.95
New Load.LOAD36 Phases=1 Bus1=1778.2 kV=0.23 kW=1 PF=0.95
New Load.LOAD37 Phases=1 Bus1=1785.2 kV=0.23 kW=1 PF=0.95
New Load.LOAD38 Phases=1 Bus1=1786.2 kV=0.23 kW=1 PF=0.95
New Load.LOAD39 Phases=1 Bus1=1805.2 kV=0.23 kW=1 PF=0.95
New Load.LOAD40 Phases=1 Bus1=1814.2 kV=0.23 kW=1 PF=0.95
New Load.LOAD41 Phases=1 Bus1=1828.1 kV=0.23 kW=1 PF=0.95
New Load.LOAD42 Phases=1 Bus1=1865.3 kV=0.23 kW=1 PF=0.95
New Load.LOAD43 Phases=1 Bus1=1901.2 kV=0.23 kW=1 PF=0.95
New Load.LOAD44 Phases=1 Bus1=1911.1 kV=0.23 kW=1 PF=0.95
New Load.LOAD45 Phases=1 Bus1=1929.3 kV=0.23 kW=1 PF=0.95
New Load.LOAD46 Phases=1 Bus1=1938.1 kV=0.23 kW=1 PF=0.95
New Load.LOAD47 Phases=1 Bus1=1939.1 kV=0.23 kW=1 PF=0.95
New Load.LOAD48 Phases=1 Bus1=1965.3 kV=0.23 kW=1 PF=0.95
New Load.LOAD49 Phases=1 Bus1=1966.2 kV=0.23 kW=1 PF=0.95
New Load.LOAD50 Phases=1 Bus1=1987.1 kV=0.23 kW=1 PF=0.95
New Load.LOAD51 Phases=1 Bus1=2013.3 kV=0.23 kW=1 PF=0.95
New Load.LOAD52 Phases=1 Bus1=2033.3 kV=0.23 kW=1 PF=0.95