New Load.LOAD1 Phases=1 Bus1=102.1 kV=0.23 kW=1 PF=0.95
New Load.LOAD2 Phases=1 Bus1=103.2 kV=0.23 kW=1 PF=0.95
New Load.LOAD3 Phases=1 Bus1=172.3 kV=0.23 kW=1 PF=0.95
New Load.LOAD4 Phases=1 Bus1=212.1 kV=0.23 kW=1 PF=0.95
New Load.LOAD5 Phases=1 Bus1=228.1 kV=0.23 kW=1 PF=0.95
New Load.LOAD6 Phases=1 Bus1=254.1 kV=0.23 kW=1 PF=0.95
New Load.LOAD7 Phases=1 Bus1=265.2 kV=0.23 kW=1 PF=0.95
New Load.LOAD8 Phases=1 Bus1=266.3 kV=0.23 kW=1 PF=0.95
New Load.LOAD9 Phases=1 Bus1=279.1 kV=0.23 kW=1 PF=0.95
New Load.LOAD10 Phases=1 Bus1=280.2 kV=0.23 kW=1 PF=0.95
New Load.LOAD11 Phases=1 Bus1=281.3 kV=0.23 kW=1 PF=0.95
New Load.LOAD12 Phases=1 Bus1=303.1 kV=0.23 kW=1 PF=0.95
New Load.LOAD13 Phases=1 Bus1=306.2 kV=0.23 kW=1 PF=0.95
New Load.LOAD14 Phases=1 Bus1=349.3 kV=0.23 kW=1 PF=0.95
New Load.LOAD15 Phases=1 Bus1=423.1 kV=0.23 kW=1 PF=0.95
New Load.LOAD16 Phases=1 Bus1=494.1 kV=0.23 kW=1 PF=0.95
New Load.LOAD17 Phases=1 Bus1=555.2 kV=0.23 kW=1 PF=0.95
New Load.LOAD18 Phases=1 Bus1=561.2 kV=0.23 kW=1 PF=0.95
New Load.LOAD19 Phases=1 Bus1=611.3 kV=0.23 kW=1 PF=0.95
New Load.LOAD20 Phases=1 Bus1=619.2 kV=0.23 kW=1 PF=0.95
New Load.LOAD21 Phases=1 Bus1=645.1 kV=0.23 kW=1 PF=0.95
New Load.LOAD22 Phases=1 Bus1=667.2 kV=0.23 kW=1 PF=0.95
New Load.LOAD23 Phases=1 Bus1=780.1 kV=0.23 kW=1 PF=0.95
New Load.LOAD24 Phases=1 Bus1=798.3 kV=0.23 kW=1 PF=0.95
New Load.LOAD25 Phases=1 Bus1=799.3 kV=0.23 kW=1 PF=0.95
New Load.LOAD26 Phases=1 Bus1=1013.3 kV=0.23 kW=1 PF=0.95
New Load.LOAD27 Phases=1 Bus1=1057.1 kV=0.23 kW=1 PF=0.95
New Load.LOAD28 Phases=1 Bus1=1079.1 kV=0.23 kW=1 PF=0.95
New Load.LOAD29 Phases=1 Bus1=1199.3 kV=0.23 kW=1 PF=0.95
New Load.LOAD30 Phases=1 Bus1=1200.3 kV=0.23 kW=1 PF=0.95
New Load.LOAD31 Phases=1 Bus1=1262.3 kV=0.23 kW=1 PF=0.95
New Load.LOAD32 Phases=1 Bus1=1343.1 kV=0.23 kW=1 PF=0.95
New Load.LOAD33 Phases=1 Bus1=1379.2 kV=0.23 kW=1 PF=0.95
New Load.LOAD34 Phases=1 Bus1=1384.2 kV=0.23 kW=1 PF=0.95
New Load.LOAD35 Phases=1 Bus1=1395.2 kV=0.23 kW=1 PF=0.95
New Load.LOAD36 Phases=1 Bus1=1408.3 kV=0.23 kW=1 PF=0.95
New Load.LOAD37 Phases=1 Bus1=1423.3 kV=0.23 kW=1 PF=0.95
New Load.LOAD38 Phases=1 Bus1=1461.3 kV=0.23 kW=1 PF=0.95
New Load.LOAD39 Phases=1 Bus1=1523.2 kV=0.23 kW=1 PF=0.95
New Load.LOAD40 Phases=1 Bus1=1534.2 kV=0.23 kW=1 PF=0.95
New Load.LOAD41 Phases=1 Bus1=1564.1 kV=0.23 kW=1 PF=0.95
New Load.LOAD42 Phases=1 Bus1=1573.1 kV=0.23 kW=1 PF=0.95
New Load.LOAD43 Phases=1 Bus1=1730.1 kV=0.23 kW=1 PF=0.95
New Load.LOAD44 Phases=1 Bus1=1746.2 kV=0.23 kW=1 PF=0.95
New Load.LOAD45 Phases=1 Bus1=1762.2 kV=0.23 kW=1 PF=0.95
New Load.LOAD46 Phases=1 Bus1=1763.3 kV=0.23 kW=1 PF=0.95
New Load.LOAD47 Phases=1 Bus1=1779.3 kV=0.23 kW=1 PF=0.95
New Load.LOAD48 Phases=1 Bus1=1781.1 kV=0.23 kW=1 PF=0.95
New Load.LOAD49 Phases=1 Bus1=1896.1 kV=0.23 kW=1 PF=0.95
New Load.LOAD50 Phases=1 Bus1=1928.3 kV=0.23 kW=1 PF=0.95
New Load.LOAD51 Phases=1 Bus1=1966.1 kV=0.23 kW=1 PF=0.95
New Load.LOAD52 Phases=1 Bus1=1968.1 kV=0.23 kW=1 PF=0.95
New Load.LOAD53 Phases=1 Bus1=1973.1 kV=0.23 kW=1 PF=0.95
New Load.LOAD54 Phases=1 Bus1=1979.2 kV=0.23 kW=1 PF=0.95
New Load.LOAD55 Phases=1 Bus1=1995.1 kV=0.23 kW=1 PF=0.95
New Load.LOAD56 Phases=1 Bus1=2009.3 kV=0.23 kW=1 PF=0.95
New Load.LOAD57 Phases=1 Bus1=2020.2 kV=0.23 kW=1 PF=0.95
New Load.LOAD58 Phases=1 Bus1=2047.3 kV=0.23 kW=1 PF=0.95
New Load.LOAD59 Phases=1 Bus1=2091.2 kV=0.23 kW=1 PF=0.95
New Load.LOAD60 Phases=1 Bus1=2151.1 kV=0.23 kW=1 PF=0.95
New Load.LOAD61 Phases=1 Bus1=2160.1 kV=0.23 kW=1 PF=0.95
New Load.LOAD62 Phases=1 Bus1=2164.3 kV=0.23 kW=1 PF=0.95
New Load.LOAD63 Phases=1 Bus1=2198.3 kV=0.23 kW=1 PF=0.95
New Load.LOAD64 Phases=1 Bus1=2234.1 kV=0.23 kW=1 PF=0.95
New Load.LOAD65 Phases=1 Bus1=2291.2 kV=0.23 kW=1 PF=0.95
New Load.LOAD66 Phases=1 Bus1=2310.2 kV=0.23 kW=1 PF=0.95
New Load.LOAD67 Phases=1 Bus1=2311.2 kV=0.23 kW=1 PF=0.95
New Load.LOAD68 Phases=1 Bus1=2360.3 kV=0.23 kW=1 PF=0.95
New Load.LOAD69 Phases=1 Bus1=2390.1 kV=0.23 kW=1 PF=0.95
New Load.LOAD70 Phases=1 Bus1=2392.2 kV=0.23 kW=1 PF=0.95
New Load.LOAD71 Phases=1 Bus1=2402.2 kV=0.23 kW=1 PF=0.95
New Load.LOAD72 Phases=1 Bus1=2433.2 kV=0.23 kW=1 PF=0.95
New Load.LOAD73 Phases=1 Bus1=2441.3 kV=0.23 kW=1 PF=0.95
New Load.LOAD74 Phases=1 Bus1=2448.1 kV=0.23 kW=1 PF=0.95
New Load.LOAD75 Phases=1 Bus1=2454.3 kV=0.23 kW=1 PF=0.95
New Load.LOAD76 Phases=1 Bus1=2530.1 kV=0.23 kW=1 PF=0.95
New Load.LOAD77 Phases=1 Bus1=2540.2 kV=0.23 kW=1 PF=0.95