New Load.LOAD1 Phases=1 Bus1=46.1 kV=0.23 kW=1 PF=0.95
New Load.LOAD2 Phases=1 Bus1=48.2 kV=0.23 kW=1 PF=0.95
New Load.LOAD3 Phases=1 Bus1=52.3 kV=0.23 kW=1 PF=0.95
New Load.LOAD4 Phases=1 Bus1=69.1 kV=0.23 kW=1 PF=0.95
New Load.LOAD5 Phases=1 Bus1=72.2 kV=0.23 kW=1 PF=0.95
New Load.LOAD6 Phases=1 Bus1=74.3 kV=0.23 kW=1 PF=0.95
New Load.LOAD7 Phases=1 Bus1=79.1 kV=0.23 kW=1 PF=0.95
New Load.LOAD8 Phases=1 Bus1=82.2 kV=0.23 kW=1 PF=0.95
New Load.LOAD9 Phases=1 Bus1=119.3 kV=0.23 kW=1 PF=0.95
New Load.LOAD10 Phases=1 Bus1=248.3 kV=0.23 kW=1 PF=0.95
New Load.LOAD11 Phases=1 Bus1=275.3 kV=0.23 kW=1 PF=0.95
New Load.LOAD12 Phases=1 Bus1=282.2 kV=0.23 kW=1 PF=0.95
New Load.LOAD13 Phases=1 Bus1=295.1 kV=0.23 kW=1 PF=0.95
New Load.LOAD14 Phases=1 Bus1=311.1 kV=0.23 kW=1 PF=0.95
New Load.LOAD15 Phases=1 Bus1=314.2 kV=0.23 kW=1 PF=0.95
New Load.LOAD16 Phases=1 Bus1=451.2 kV=0.23 kW=1 PF=0.95
New Load.LOAD17 Phases=1 Bus1=518.2 kV=0.23 kW=1 PF=0.95
New Load.LOAD18 Phases=1 Bus1=594.3 kV=0.23 kW=1 PF=0.95
New Load.LOAD19 Phases=1 Bus1=611.3 kV=0.23 kW=1 PF=0.95
New Load.LOAD20 Phases=1 Bus1=621.1 kV=0.23 kW=1 PF=0.95
New Load.LOAD21 Phases=1 Bus1=622.1 kV=0.23 kW=1 PF=0.95
New Load.LOAD22 Phases=1 Bus1=651.1 kV=0.23 kW=1 PF=0.95
New Load.LOAD23 Phases=1 Bus1=653.3 kV=0.23 kW=1 PF=0.95
New Load.LOAD24 Phases=1 Bus1=663.1 kV=0.23 kW=1 PF=0.95
New Load.LOAD25 Phases=1 Bus1=681.3 kV=0.23 kW=1 PF=0.95
New Load.LOAD26 Phases=1 Bus1=682.3 kV=0.23 kW=1 PF=0.95
New Load.LOAD27 Phases=1 Bus1=702.2 kV=0.23 kW=1 PF=0.95
New Load.LOAD28 Phases=1 Bus1=703.1 kV=0.23 kW=1 PF=0.95
New Load.LOAD29 Phases=1 Bus1=704.1 kV=0.23 kW=1 PF=0.95
New Load.LOAD30 Phases=1 Bus1=732.3 kV=0.23 kW=1 PF=0.95
New Load.LOAD31 Phases=1 Bus1=754.2 kV=0.23 kW=1 PF=0.95
New Load.LOAD32 Phases=1 Bus1=759.2 kV=0.23 kW=1 PF=0.95
New Load.LOAD33 Phases=1 Bus1=788.2 kV=0.23 kW=1 PF=0.95
New Load.LOAD34 Phases=1 Bus1=828.3 kV=0.23 kW=1 PF=0.95
New Load.LOAD35 Phases=1 Bus1=836.1 kV=0.23 kW=1 PF=0.95
New Load.LOAD36 Phases=1 Bus1=842.1 kV=0.23 kW=1 PF=0.95
New Load.LOAD37 Phases=1 Bus1=846.3 kV=0.23 kW=1 PF=0.95
New Load.LOAD38 Phases=1 Bus1=868.2 kV=0.23 kW=1 PF=0.95
New Load.LOAD39 Phases=1 Bus1=911.2 kV=0.23 kW=1 PF=0.95
New Load.LOAD40 Phases=1 Bus1=947.2 kV=0.23 kW=1 PF=0.95
New Load.LOAD41 Phases=1 Bus1=1113.2 kV=0.23 kW=1 PF=0.95
New Load.LOAD42 Phases=1 Bus1=1124.1 kV=0.23 kW=1 PF=0.95
New Load.LOAD43 Phases=1 Bus1=1128.3 kV=0.23 kW=1 PF=0.95
New Load.LOAD44 Phases=1 Bus1=1143.2 kV=0.23 kW=1 PF=0.95
New Load.LOAD45 Phases=1 Bus1=1146.2 kV=0.23 kW=1 PF=0.95
New Load.LOAD46 Phases=1 Bus1=1158.1 kV=0.23 kW=1 PF=0.95
New Load.LOAD47 Phases=1 Bus1=1176.1 kV=0.23 kW=1 PF=0.95
New Load.LOAD48 Phases=1 Bus1=1196.3 kV=0.23 kW=1 PF=0.95
New Load.LOAD49 Phases=1 Bus1=1239.3 kV=0.23 kW=1 PF=0.95
New Load.LOAD50 Phases=1 Bus1=1248.1 kV=0.23 kW=1 PF=0.95
New Load.LOAD51 Phases=1 Bus1=1249.2 kV=0.23 kW=1 PF=0.95
New Load.LOAD52 Phases=1 Bus1=1250.2 kV=0.23 kW=1 PF=0.95
New Load.LOAD53 Phases=1 Bus1=1258.1 kV=0.23 kW=1 PF=0.95
New Load.LOAD54 Phases=1 Bus1=1266.1 kV=0.23 kW=1 PF=0.95
New Load.LOAD55 Phases=1 Bus1=1303.2 kV=0.23 kW=1 PF=0.95
New Load.LOAD56 Phases=1 Bus1=1304.3 kV=0.23 kW=1 PF=0.95
New Load.LOAD57 Phases=1 Bus1=1311.2 kV=0.23 kW=1 PF=0.95
New Load.LOAD58 Phases=1 Bus1=1366.1 kV=0.23 kW=1 PF=0.95
New Load.LOAD59 Phases=1 Bus1=1372.2 kV=0.23 kW=1 PF=0.95
New Load.LOAD60 Phases=1 Bus1=1428.3 kV=0.23 kW=1 PF=0.95
New Load.LOAD61 Phases=1 Bus1=1446.2 kV=0.23 kW=1 PF=0.95
New Load.LOAD62 Phases=1 Bus1=1530.2 kV=0.23 kW=1 PF=0.95
New Load.LOAD63 Phases=1 Bus1=1550.2 kV=0.23 kW=1 PF=0.95
New Load.LOAD64 Phases=1 Bus1=1551.3 kV=0.23 kW=1 PF=0.95
New Load.LOAD65 Phases=1 Bus1=1552.3 kV=0.23 kW=1 PF=0.95
New Load.LOAD66 Phases=1 Bus1=1553.3 kV=0.23 kW=1 PF=0.95
New Load.LOAD67 Phases=1 Bus1=1564.3 kV=0.23 kW=1 PF=0.95
New Load.LOAD68 Phases=1 Bus1=1589.3 kV=0.23 kW=1 PF=0.95
New Load.LOAD69 Phases=1 Bus1=1621.1 kV=0.23 kW=1 PF=0.95
New Load.LOAD70 Phases=1 Bus1=1628.2 kV=0.23 kW=1 PF=0.95
New Load.LOAD71 Phases=1 Bus1=1645.3 kV=0.23 kW=1 PF=0.95
New Load.LOAD72 Phases=1 Bus1=1657.2 kV=0.23 kW=1 PF=0.95
New Load.LOAD73 Phases=1 Bus1=1704.1 kV=0.23 kW=1 PF=0.95
New Load.LOAD74 Phases=1 Bus1=1716.1 kV=0.23 kW=1 PF=0.95
New Load.LOAD75 Phases=1 Bus1=1753.2 kV=0.23 kW=1 PF=0.95
New Load.LOAD76 Phases=1 Bus1=1754.2 kV=0.23 kW=1 PF=0.95
New Load.LOAD77 Phases=1 Bus1=1756.2 kV=0.23 kW=1 PF=0.95
New Load.LOAD78 Phases=1 Bus1=1765.1 kV=0.23 kW=1 PF=0.95
New Load.LOAD79 Phases=1 Bus1=1779.1 kV=0.23 kW=1 PF=0.95
New Load.LOAD80 Phases=1 Bus1=1800.3 kV=0.23 kW=1 PF=0.95
New Load.LOAD81 Phases=1 Bus1=1816.1 kV=0.23 kW=1 PF=0.95
New Load.LOAD82 Phases=1 Bus1=1817.3 kV=0.23 kW=1 PF=0.95
New Load.LOAD83 Phases=1 Bus1=1818.1 kV=0.23 kW=1 PF=0.95