New Load.LOAD1 Phases=1 Bus1=54.1 kV=0.23 kW=1 PF=0.95
New Load.LOAD2 Phases=1 Bus1=55.2 kV=0.23 kW=1 PF=0.95
New Load.LOAD3 Phases=1 Bus1=72.1 kV=0.23 kW=1 PF=0.95
New Load.LOAD4 Phases=1 Bus1=93.1 kV=0.23 kW=1 PF=0.95
New Load.LOAD5 Phases=1 Bus1=108.2 kV=0.23 kW=1 PF=0.95
New Load.LOAD6 Phases=1 Bus1=110.3 kV=0.23 kW=1 PF=0.95
New Load.LOAD7 Phases=1 Bus1=123.1 kV=0.23 kW=1 PF=0.95
New Load.LOAD8 Phases=1 Bus1=170.1 kV=0.23 kW=1 PF=0.95
New Load.LOAD9 Phases=1 Bus1=219.1 kV=0.23 kW=1 PF=0.95
New Load.LOAD10 Phases=1 Bus1=220.1 kV=0.23 kW=1 PF=0.95
New Load.LOAD11 Phases=1 Bus1=229.2 kV=0.23 kW=1 PF=0.95
New Load.LOAD12 Phases=1 Bus1=231.1 kV=0.23 kW=1 PF=0.95
New Load.LOAD13 Phases=1 Bus1=239.2 kV=0.23 kW=1 PF=0.95
New Load.LOAD14 Phases=1 Bus1=243.2 kV=0.23 kW=1 PF=0.95
New Load.LOAD15 Phases=1 Bus1=286.2 kV=0.23 kW=1 PF=0.95
New Load.LOAD16 Phases=1 Bus1=298.2 kV=0.23 kW=1 PF=0.95
New Load.LOAD17 Phases=1 Bus1=311.2 kV=0.23 kW=1 PF=0.95
New Load.LOAD18 Phases=1 Bus1=313.2 kV=0.23 kW=1 PF=0.95
New Load.LOAD19 Phases=1 Bus1=335.2 kV=0.23 kW=1 PF=0.95
New Load.LOAD20 Phases=1 Bus1=337.2 kV=0.23 kW=1 PF=0.95
New Load.LOAD21 Phases=1 Bus1=347.2 kV=0.23 kW=1 PF=0.95
New Load.LOAD22 Phases=1 Bus1=348.2 kV=0.23 kW=1 PF=0.95
New Load.LOAD23 Phases=1 Bus1=359.2 kV=0.23 kW=1 PF=0.95
New Load.LOAD24 Phases=1 Bus1=362.3 kV=0.23 kW=1 PF=0.95
New Load.LOAD25 Phases=1 Bus1=365.3 kV=0.23 kW=1 PF=0.95
New Load.LOAD26 Phases=1 Bus1=394.2 kV=0.23 kW=1 PF=0.95
New Load.LOAD27 Phases=1 Bus1=433.3 kV=0.23 kW=1 PF=0.95
New Load.LOAD28 Phases=1 Bus1=461.3 kV=0.23 kW=1 PF=0.95
New Load.LOAD29 Phases=1 Bus1=462.2 kV=0.23 kW=1 PF=0.95
New Load.LOAD30 Phases=1 Bus1=498.3 kV=0.23 kW=1 PF=0.95
New Load.LOAD31 Phases=1 Bus1=499.3 kV=0.23 kW=1 PF=0.95
New Load.LOAD32 Phases=1 Bus1=509.2 kV=0.23 kW=1 PF=0.95
New Load.LOAD33 Phases=1 Bus1=524.2 kV=0.23 kW=1 PF=0.95
New Load.LOAD34 Phases=1 Bus1=569.2 kV=0.23 kW=1 PF=0.95
New Load.LOAD35 Phases=1 Bus1=610.2 kV=0.23 kW=1 PF=0.95
New Load.LOAD36 Phases=1 Bus1=618.3 kV=0.23 kW=1 PF=0.95
New Load.LOAD37 Phases=1 Bus1=627.2 kV=0.23 kW=1 PF=0.95
New Load.LOAD38 Phases=1 Bus1=645.2 kV=0.23 kW=1 PF=0.95
New Load.LOAD39 Phases=1 Bus1=649.2 kV=0.23 kW=1 PF=0.95
New Load.LOAD40 Phases=1 Bus1=658.3 kV=0.23 kW=1 PF=0.95
New Load.LOAD41 Phases=1 Bus1=677.3 kV=0.23 kW=1 PF=0.95
New Load.LOAD42 Phases=1 Bus1=695.3 kV=0.23 kW=1 PF=0.95
New Load.LOAD43 Phases=1 Bus1=703.2 kV=0.23 kW=1 PF=0.95
New Load.LOAD44 Phases=1 Bus1=705.2 kV=0.23 kW=1 PF=0.95
New Load.LOAD45 Phases=1 Bus1=724.2 kV=0.23 kW=1 PF=0.95
New Load.LOAD46 Phases=1 Bus1=737.2 kV=0.23 kW=1 PF=0.95
New Load.LOAD47 Phases=1 Bus1=741.2 kV=0.23 kW=1 PF=0.95
New Load.LOAD48 Phases=1 Bus1=753.3 kV=0.23 kW=1 PF=0.95
New Load.LOAD49 Phases=1 Bus1=758.1 kV=0.23 kW=1 PF=0.95
New Load.LOAD50 Phases=1 Bus1=761.1 kV=0.23 kW=1 PF=0.95
New Load.LOAD51 Phases=1 Bus1=767.3 kV=0.23 kW=1 PF=0.95
New Load.LOAD52 Phases=1 Bus1=782.3 kV=0.23 kW=1 PF=0.95
New Load.LOAD53 Phases=1 Bus1=785.3 kV=0.23 kW=1 PF=0.95
New Load.LOAD54 Phases=1 Bus1=836.1 kV=0.23 kW=1 PF=0.95
New Load.LOAD55 Phases=1 Bus1=866.2 kV=0.23 kW=1 PF=0.95
New Load.LOAD56 Phases=1 Bus1=871.2 kV=0.23 kW=1 PF=0.95
New Load.LOAD57 Phases=1 Bus1=886.1 kV=0.23 kW=1 PF=0.95
New Load.LOAD58 Phases=1 Bus1=905.1 kV=0.23 kW=1 PF=0.95
New Load.LOAD59 Phases=1 Bus1=915.3 kV=0.23 kW=1 PF=0.95
New Load.LOAD60 Phases=1 Bus1=924.1 kV=0.23 kW=1 PF=0.95
New Load.LOAD61 Phases=1 Bus1=971.2 kV=0.23 kW=1 PF=0.95
New Load.LOAD62 Phases=1 Bus1=972.2 kV=0.23 kW=1 PF=0.95
New Load.LOAD63 Phases=1 Bus1=990.1 kV=0.23 kW=1 PF=0.95
New Load.LOAD64 Phases=1 Bus1=1003.3 kV=0.23 kW=1 PF=0.95
New Load.LOAD65 Phases=1 Bus1=1004.3 kV=0.23 kW=1 PF=0.95
New Load.LOAD66 Phases=1 Bus1=1006.2 kV=0.23 kW=1 PF=0.95
New Load.LOAD67 Phases=1 Bus1=1052.3 kV=0.23 kW=1 PF=0.95
New Load.LOAD68 Phases=1 Bus1=1054.3 kV=0.23 kW=1 PF=0.95
New Load.LOAD69 Phases=1 Bus1=1073.1 kV=0.23 kW=1 PF=0.95
New Load.LOAD70 Phases=1 Bus1=1081.3 kV=0.23 kW=1 PF=0.95
New Load.LOAD71 Phases=1 Bus1=1116.3 kV=0.23 kW=1 PF=0.95
New Load.LOAD72 Phases=1 Bus1=1139.1 kV=0.23 kW=1 PF=0.95
New Load.LOAD73 Phases=1 Bus1=1149.2 kV=0.23 kW=1 PF=0.95
New Load.LOAD74 Phases=1 Bus1=1150.2 kV=0.23 kW=1 PF=0.95
New Load.LOAD75 Phases=1 Bus1=1172.3 kV=0.23 kW=1 PF=0.95
New Load.LOAD76 Phases=1 Bus1=1190.1 kV=0.23 kW=1 PF=0.95
New Load.LOAD77 Phases=1 Bus1=1191.1 kV=0.23 kW=1 PF=0.95
New Load.LOAD78 Phases=1 Bus1=1199.1 kV=0.23 kW=1 PF=0.95
New Load.LOAD79 Phases=1 Bus1=1216.1 kV=0.23 kW=1 PF=0.95
New Load.LOAD80 Phases=1 Bus1=1234.1 kV=0.23 kW=1 PF=0.95
New Load.LOAD81 Phases=1 Bus1=1245.1 kV=0.23 kW=1 PF=0.95
New Load.LOAD82 Phases=1 Bus1=1247.1 kV=0.23 kW=1 PF=0.95
New Load.LOAD83 Phases=1 Bus1=1264.1 kV=0.23 kW=1 PF=0.95
New Load.LOAD84 Phases=1 Bus1=1285.1 kV=0.23 kW=1 PF=0.95
New Load.LOAD85 Phases=1 Bus1=1286.1 kV=0.23 kW=1 PF=0.95
New Load.LOAD86 Phases=1 Bus1=1298.1 kV=0.23 kW=1 PF=0.95
New Load.LOAD87 Phases=1 Bus1=1299.1 kV=0.23 kW=1 PF=0.95
New Load.LOAD88 Phases=1 Bus1=1306.3 kV=0.23 kW=1 PF=0.95
New Load.LOAD89 Phases=1 Bus1=1345.1 kV=0.23 kW=1 PF=0.95
New Load.LOAD90 Phases=1 Bus1=1354.3 kV=0.23 kW=1 PF=0.95
New Load.LOAD91 Phases=1 Bus1=1381.1 kV=0.23 kW=1 PF=0.95
New Load.LOAD92 Phases=1 Bus1=1402.1 kV=0.23 kW=1 PF=0.95
New Load.LOAD93 Phases=1 Bus1=1403.1 kV=0.23 kW=1 PF=0.95
New Load.LOAD94 Phases=1 Bus1=1458.1 kV=0.23 kW=1 PF=0.95
New Load.LOAD95 Phases=1 Bus1=1459.1 kV=0.23 kW=1 PF=0.95
New Load.LOAD96 Phases=1 Bus1=1505.2 kV=0.23 kW=1 PF=0.95
New Load.LOAD97 Phases=1 Bus1=1506.2 kV=0.23 kW=1 PF=0.95
New Load.LOAD98 Phases=1 Bus1=1566.2 kV=0.23 kW=1 PF=0.95
New Load.LOAD99 Phases=1 Bus1=1567.2 kV=0.23 kW=1 PF=0.95
New Load.LOAD100 Phases=1 Bus1=1574.2 kV=0.23 kW=1 PF=0.95
New Load.LOAD101 Phases=1 Bus1=1608.1 kV=0.23 kW=1 PF=0.95
New Load.LOAD102 Phases=1 Bus1=1609.1 kV=0.23 kW=1 PF=0.95
New Load.LOAD103 Phases=1 Bus1=1658.3 kV=0.23 kW=1 PF=0.95
New Load.LOAD104 Phases=1 Bus1=1659.3 kV=0.23 kW=1 PF=0.95
New Load.LOAD105 Phases=1 Bus1=1661.2 kV=0.23 kW=1 PF=0.95
New Load.LOAD106 Phases=1 Bus1=1662.2 kV=0.23 kW=1 PF=0.95
New Load.LOAD107 Phases=1 Bus1=1669.1 kV=0.23 kW=1 PF=0.95
New Load.LOAD108 Phases=1 Bus1=1670.1 kV=0.23 kW=1 PF=0.95
New Load.LOAD109 Phases=1 Bus1=1693.2 kV=0.23 kW=1 PF=0.95
New Load.LOAD110 Phases=1 Bus1=1706.3 kV=0.23 kW=1 PF=0.95
New Load.LOAD111 Phases=1 Bus1=1707.3 kV=0.23 kW=1 PF=0.95