New Load.LOAD1 Phases=1 Bus1=168.1 kV=0.23 kW=1 PF=0.95
New Load.LOAD2 Phases=1 Bus1=190.3 kV=0.23 kW=1 PF=0.95
New Load.LOAD3 Phases=1 Bus1=200.2 kV=0.23 kW=1 PF=0.95
New Load.LOAD4 Phases=1 Bus1=211.1 kV=0.23 kW=1 PF=0.95
New Load.LOAD5 Phases=1 Bus1=298.1 kV=0.23 kW=1 PF=0.95
New Load.LOAD6 Phases=1 Bus1=307.3 kV=0.23 kW=1 PF=0.95
New Load.LOAD7 Phases=1 Bus1=319.2 kV=0.23 kW=1 PF=0.95
New Load.LOAD8 Phases=1 Bus1=329.2 kV=0.23 kW=1 PF=0.95
New Load.LOAD9 Phases=1 Bus1=347.1 kV=0.23 kW=1 PF=0.95
New Load.LOAD10 Phases=1 Bus1=356.3 kV=0.23 kW=1 PF=0.95
New Load.LOAD11 Phases=1 Bus1=362.1 kV=0.23 kW=1 PF=0.95
New Load.LOAD12 Phases=1 Bus1=385.2 kV=0.23 kW=1 PF=0.95
New Load.LOAD13 Phases=1 Bus1=389.2 kV=0.23 kW=1 PF=0.95
New Load.LOAD14 Phases=1 Bus1=404.1 kV=0.23 kW=1 PF=0.95
New Load.LOAD15 Phases=1 Bus1=412.2 kV=0.23 kW=1 PF=0.95
New Load.LOAD16 Phases=1 Bus1=426.1 kV=0.23 kW=1 PF=0.95
New Load.LOAD17 Phases=1 Bus1=435.3 kV=0.23 kW=1 PF=0.95
New Load.LOAD18 Phases=1 Bus1=439.1 kV=0.23 kW=1 PF=0.95
New Load.LOAD19 Phases=1 Bus1=449.2 kV=0.23 kW=1 PF=0.95
New Load.LOAD20 Phases=1 Bus1=478.1 kV=0.23 kW=1 PF=0.95
New Load.LOAD21 Phases=1 Bus1=511.3 kV=0.23 kW=1 PF=0.95
New Load.LOAD22 Phases=1 Bus1=513.2 kV=0.23 kW=1 PF=0.95
New Load.LOAD23 Phases=1 Bus1=517.1 kV=0.23 kW=1 PF=0.95