New Load.LOAD1 Phases=1 Bus1=258.3 kV=0.23 kW=1 PF=0.95
New Load.LOAD2 Phases=1 Bus1=305.1 kV=0.23 kW=1 PF=0.95
New Load.LOAD3 Phases=1 Bus1=321.2 kV=0.23 kW=1 PF=0.95
New Load.LOAD4 Phases=1 Bus1=407.3 kV=0.23 kW=1 PF=0.95
New Load.LOAD5 Phases=1 Bus1=435.1 kV=0.23 kW=1 PF=0.95
New Load.LOAD6 Phases=1 Bus1=517.2 kV=0.23 kW=1 PF=0.95
New Load.LOAD7 Phases=1 Bus1=518.1 kV=0.23 kW=1 PF=0.95
New Load.LOAD8 Phases=1 Bus1=546.1 kV=0.23 kW=1 PF=0.95
New Load.LOAD9 Phases=1 Bus1=547.1 kV=0.23 kW=1 PF=0.95
New Load.LOAD10 Phases=1 Bus1=548.1 kV=0.23 kW=1 PF=0.95
New Load.LOAD11 Phases=1 Bus1=567.1 kV=0.23 kW=1 PF=0.95
New Load.LOAD12 Phases=1 Bus1=568.2 kV=0.23 kW=1 PF=0.95
New Load.LOAD13 Phases=1 Bus1=569.3 kV=0.23 kW=1 PF=0.95
New Load.LOAD14 Phases=1 Bus1=570.1 kV=0.23 kW=1 PF=0.95
New Load.LOAD15 Phases=1 Bus1=633.3 kV=0.23 kW=1 PF=0.95
New Load.LOAD16 Phases=1 Bus1=671.2 kV=0.23 kW=1 PF=0.95
New Load.LOAD17 Phases=1 Bus1=694.1 kV=0.23 kW=1 PF=0.95
New Load.LOAD18 Phases=1 Bus1=726.2 kV=0.23 kW=1 PF=0.95
New Load.LOAD19 Phases=1 Bus1=734.1 kV=0.23 kW=1 PF=0.95
New Load.LOAD20 Phases=1 Bus1=756.3 kV=0.23 kW=1 PF=0.95
New Load.LOAD21 Phases=1 Bus1=759.2 kV=0.23 kW=1 PF=0.95
New Load.LOAD22 Phases=1 Bus1=761.3 kV=0.23 kW=1 PF=0.95
New Load.LOAD23 Phases=1 Bus1=802.3 kV=0.23 kW=1 PF=0.95
New Load.LOAD24 Phases=1 Bus1=807.2 kV=0.23 kW=1 PF=0.95
New Load.LOAD25 Phases=1 Bus1=899.2 kV=0.23 kW=1 PF=0.95
New Load.LOAD26 Phases=1 Bus1=907.2 kV=0.23 kW=1 PF=0.95
New Load.LOAD27 Phases=1 Bus1=979.1 kV=0.23 kW=1 PF=0.95
New Load.LOAD28 Phases=1 Bus1=981.3 kV=0.23 kW=1 PF=0.95
New Load.LOAD29 Phases=1 Bus1=1037.3 kV=0.23 kW=1 PF=0.95
New Load.LOAD30 Phases=1 Bus1=1155.1 kV=0.23 kW=1 PF=0.95
New Load.LOAD31 Phases=1 Bus1=1162.3 kV=0.23 kW=1 PF=0.95
New Load.LOAD32 Phases=1 Bus1=1164.1 kV=0.23 kW=1 PF=0.95
New Load.LOAD33 Phases=1 Bus1=1177.2 kV=0.23 kW=1 PF=0.95
New Load.LOAD34 Phases=1 Bus1=1185.2 kV=0.23 kW=1 PF=0.95
New Load.LOAD35 Phases=1 Bus1=1190.3 kV=0.23 kW=1 PF=0.95
New Load.LOAD36 Phases=1 Bus1=1191.1 kV=0.23 kW=1 PF=0.95
New Load.LOAD37 Phases=1 Bus1=1197.3 kV=0.23 kW=1 PF=0.95
New Load.LOAD38 Phases=1 Bus1=1205.2 kV=0.23 kW=1 PF=0.95
New Load.LOAD39 Phases=1 Bus1=1207.3 kV=0.23 kW=1 PF=0.95
New Load.LOAD40 Phases=1 Bus1=1215.1 kV=0.23 kW=1 PF=0.95
New Load.LOAD41 Phases=1 Bus1=1239.1 kV=0.23 kW=1 PF=0.95
New Load.LOAD42 Phases=1 Bus1=1245.2 kV=0.23 kW=1 PF=0.95
New Load.LOAD43 Phases=1 Bus1=1296.3 kV=0.23 kW=1 PF=0.95
New Load.LOAD44 Phases=1 Bus1=1461.1 kV=0.23 kW=1 PF=0.95
New Load.LOAD45 Phases=1 Bus1=1517.2 kV=0.23 kW=1 PF=0.95
New Load.LOAD46 Phases=1 Bus1=1549.3 kV=0.23 kW=1 PF=0.95
New Load.LOAD47 Phases=1 Bus1=1551.1 kV=0.23 kW=1 PF=0.95
New Load.LOAD48 Phases=1 Bus1=1574.1 kV=0.23 kW=1 PF=0.95
New Load.LOAD49 Phases=1 Bus1=1576.3 kV=0.23 kW=1 PF=0.95
New Load.LOAD50 Phases=1 Bus1=1582.3 kV=0.23 kW=1 PF=0.95
New Load.LOAD51 Phases=1 Bus1=1600.1 kV=0.23 kW=1 PF=0.95
New Load.LOAD52 Phases=1 Bus1=1601.2 kV=0.23 kW=1 PF=0.95
New Load.LOAD53 Phases=1 Bus1=1625.2 kV=0.23 kW=1 PF=0.95
New Load.LOAD54 Phases=1 Bus1=1628.3 kV=0.23 kW=1 PF=0.95
New Load.LOAD55 Phases=1 Bus1=1643.1 kV=0.23 kW=1 PF=0.95
New Load.LOAD56 Phases=1 Bus1=1656.2 kV=0.23 kW=1 PF=0.95
New Load.LOAD57 Phases=1 Bus1=1670.3 kV=0.23 kW=1 PF=0.95
New Load.LOAD58 Phases=1 Bus1=1684.3 kV=0.23 kW=1 PF=0.95
New Load.LOAD59 Phases=1 Bus1=1705.2 kV=0.23 kW=1 PF=0.95
New Load.LOAD60 Phases=1 Bus1=1723.1 kV=0.23 kW=1 PF=0.95
New Load.LOAD61 Phases=1 Bus1=1768.1 kV=0.23 kW=1 PF=0.95
New Load.LOAD62 Phases=1 Bus1=1936.2 kV=0.23 kW=1 PF=0.95
New Load.LOAD63 Phases=1 Bus1=1965.3 kV=0.23 kW=1 PF=0.95
New Load.LOAD64 Phases=1 Bus1=2002.1 kV=0.23 kW=1 PF=0.95
New Load.LOAD65 Phases=1 Bus1=2003.3 kV=0.23 kW=1 PF=0.95
New Load.LOAD66 Phases=1 Bus1=2019.1 kV=0.23 kW=1 PF=0.95
New Load.LOAD67 Phases=1 Bus1=2045.2 kV=0.23 kW=1 PF=0.95
New Load.LOAD68 Phases=1 Bus1=2099.1 kV=0.23 kW=1 PF=0.95
New Load.LOAD69 Phases=1 Bus1=2113.3 kV=0.23 kW=1 PF=0.95
New Load.LOAD70 Phases=1 Bus1=2149.2 kV=0.23 kW=1 PF=0.95
New Load.LOAD71 Phases=1 Bus1=2179.3 kV=0.23 kW=1 PF=0.95
New Load.LOAD72 Phases=1 Bus1=2192.1 kV=0.23 kW=1 PF=0.95
New Load.LOAD73 Phases=1 Bus1=2199.2 kV=0.23 kW=1 PF=0.95
New Load.LOAD74 Phases=1 Bus1=2239.2 kV=0.23 kW=1 PF=0.95
New Load.LOAD75 Phases=1 Bus1=2251.1 kV=0.23 kW=1 PF=0.95
New Load.LOAD76 Phases=1 Bus1=2263.1 kV=0.23 kW=1 PF=0.95
New Load.LOAD77 Phases=1 Bus1=2267.3 kV=0.23 kW=1 PF=0.95
New Load.LOAD78 Phases=1 Bus1=2270.1 kV=0.23 kW=1 PF=0.95
New Load.LOAD79 Phases=1 Bus1=2324.3 kV=0.23 kW=1 PF=0.95
New Load.LOAD80 Phases=1 Bus1=2379.1 kV=0.23 kW=1 PF=0.95
New Load.LOAD81 Phases=1 Bus1=2385.3 kV=0.23 kW=1 PF=0.95
New Load.LOAD82 Phases=1 Bus1=2387.2 kV=0.23 kW=1 PF=0.95
New Load.LOAD83 Phases=1 Bus1=2391.1 kV=0.23 kW=1 PF=0.95
New Load.LOAD84 Phases=1 Bus1=2428.3 kV=0.23 kW=1 PF=0.95
New Load.LOAD85 Phases=1 Bus1=2459.2 kV=0.23 kW=1 PF=0.95