New Load.LOAD1 Phases=1 Bus1=47.1 kV=0.23 kW=1 PF=0.95
New Load.LOAD2 Phases=1 Bus1=103.2 kV=0.23 kW=1 PF=0.95
New Load.LOAD3 Phases=1 Bus1=109.3 kV=0.23 kW=1 PF=0.95
New Load.LOAD4 Phases=1 Bus1=196.3 kV=0.23 kW=1 PF=0.95
New Load.LOAD5 Phases=1 Bus1=197.3 kV=0.23 kW=1 PF=0.95
New Load.LOAD6 Phases=1 Bus1=198.3 kV=0.23 kW=1 PF=0.95
New Load.LOAD7 Phases=1 Bus1=199.3 kV=0.23 kW=1 PF=0.95
New Load.LOAD8 Phases=1 Bus1=247.1 kV=0.23 kW=1 PF=0.95
New Load.LOAD9 Phases=1 Bus1=268.2 kV=0.23 kW=1 PF=0.95
New Load.LOAD10 Phases=1 Bus1=269.3 kV=0.23 kW=1 PF=0.95
New Load.LOAD11 Phases=1 Bus1=270.1 kV=0.23 kW=1 PF=0.95
New Load.LOAD12 Phases=1 Bus1=271.2 kV=0.23 kW=1 PF=0.95
New Load.LOAD13 Phases=1 Bus1=272.3 kV=0.23 kW=1 PF=0.95
New Load.LOAD14 Phases=1 Bus1=273.1 kV=0.23 kW=1 PF=0.95
New Load.LOAD15 Phases=1 Bus1=279.3 kV=0.23 kW=1 PF=0.95
New Load.LOAD16 Phases=1 Bus1=280.3 kV=0.23 kW=1 PF=0.95
New Load.LOAD17 Phases=1 Bus1=281.3 kV=0.23 kW=1 PF=0.95
New Load.LOAD18 Phases=1 Bus1=282.3 kV=0.23 kW=1 PF=0.95
New Load.LOAD19 Phases=1 Bus1=283.3 kV=0.23 kW=1 PF=0.95
New Load.LOAD20 Phases=1 Bus1=284.3 kV=0.23 kW=1 PF=0.95
New Load.LOAD21 Phases=1 Bus1=285.3 kV=0.23 kW=1 PF=0.95
New Load.LOAD22 Phases=1 Bus1=286.3 kV=0.23 kW=1 PF=0.95
New Load.LOAD23 Phases=1 Bus1=287.3 kV=0.23 kW=1 PF=0.95
New Load.LOAD24 Phases=1 Bus1=302.2 kV=0.23 kW=1 PF=0.95
New Load.LOAD25 Phases=1 Bus1=303.3 kV=0.23 kW=1 PF=0.95
New Load.LOAD26 Phases=1 Bus1=304.1 kV=0.23 kW=1 PF=0.95
New Load.LOAD27 Phases=1 Bus1=305.2 kV=0.23 kW=1 PF=0.95
New Load.LOAD28 Phases=1 Bus1=306.3 kV=0.23 kW=1 PF=0.95
New Load.LOAD29 Phases=1 Bus1=307.1 kV=0.23 kW=1 PF=0.95
New Load.LOAD30 Phases=1 Bus1=308.2 kV=0.23 kW=1 PF=0.95
New Load.LOAD31 Phases=1 Bus1=309.3 kV=0.23 kW=1 PF=0.95
New Load.LOAD32 Phases=1 Bus1=310.1 kV=0.23 kW=1 PF=0.95
New Load.LOAD33 Phases=1 Bus1=311.2 kV=0.23 kW=1 PF=0.95
New Load.LOAD34 Phases=1 Bus1=312.3 kV=0.23 kW=1 PF=0.95
New Load.LOAD35 Phases=1 Bus1=313.1 kV=0.23 kW=1 PF=0.95
New Load.LOAD36 Phases=1 Bus1=317.2 kV=0.23 kW=1 PF=0.95
New Load.LOAD37 Phases=1 Bus1=320.2 kV=0.23 kW=1 PF=0.95
New Load.LOAD38 Phases=1 Bus1=348.3 kV=0.23 kW=1 PF=0.95
New Load.LOAD39 Phases=1 Bus1=373.1 kV=0.23 kW=1 PF=0.95
New Load.LOAD40 Phases=1 Bus1=427.2 kV=0.23 kW=1 PF=0.95
New Load.LOAD41 Phases=1 Bus1=449.3 kV=0.23 kW=1 PF=0.95
New Load.LOAD42 Phases=1 Bus1=451.1 kV=0.23 kW=1 PF=0.95
New Load.LOAD43 Phases=1 Bus1=452.2 kV=0.23 kW=1 PF=0.95
New Load.LOAD44 Phases=1 Bus1=453.3 kV=0.23 kW=1 PF=0.95
New Load.LOAD45 Phases=1 Bus1=455.1 kV=0.23 kW=1 PF=0.95
New Load.LOAD46 Phases=1 Bus1=459.1 kV=0.23 kW=1 PF=0.95
New Load.LOAD47 Phases=1 Bus1=463.2 kV=0.23 kW=1 PF=0.95
New Load.LOAD48 Phases=1 Bus1=464.2 kV=0.23 kW=1 PF=0.95
New Load.LOAD49 Phases=1 Bus1=482.3 kV=0.23 kW=1 PF=0.95
New Load.LOAD50 Phases=1 Bus1=490.2 kV=0.23 kW=1 PF=0.95
New Load.LOAD51 Phases=1 Bus1=504.1 kV=0.23 kW=1 PF=0.95
New Load.LOAD52 Phases=1 Bus1=512.2 kV=0.23 kW=1 PF=0.95
New Load.LOAD53 Phases=1 Bus1=578.3 kV=0.23 kW=1 PF=0.95
New Load.LOAD54 Phases=1 Bus1=579.1 kV=0.23 kW=1 PF=0.95
New Load.LOAD55 Phases=1 Bus1=580.2 kV=0.23 kW=1 PF=0.95
New Load.LOAD56 Phases=1 Bus1=581.3 kV=0.23 kW=1 PF=0.95
New Load.LOAD57 Phases=1 Bus1=582.1 kV=0.23 kW=1 PF=0.95
New Load.LOAD58 Phases=1 Bus1=595.2 kV=0.23 kW=1 PF=0.95
New Load.LOAD59 Phases=1 Bus1=622.3 kV=0.23 kW=1 PF=0.95
New Load.LOAD60 Phases=1 Bus1=630.1 kV=0.23 kW=1 PF=0.95
New Load.LOAD61 Phases=1 Bus1=631.2 kV=0.23 kW=1 PF=0.95
New Load.LOAD62 Phases=1 Bus1=640.3 kV=0.23 kW=1 PF=0.95
New Load.LOAD63 Phases=1 Bus1=642.3 kV=0.23 kW=1 PF=0.95
New Load.LOAD64 Phases=1 Bus1=647.1 kV=0.23 kW=1 PF=0.95
New Load.LOAD65 Phases=1 Bus1=648.2 kV=0.23 kW=1 PF=0.95
New Load.LOAD66 Phases=1 Bus1=690.3 kV=0.23 kW=1 PF=0.95
New Load.LOAD67 Phases=1 Bus1=691.1 kV=0.23 kW=1 PF=0.95
New Load.LOAD68 Phases=1 Bus1=755.2 kV=0.23 kW=1 PF=0.95
New Load.LOAD69 Phases=1 Bus1=756.3 kV=0.23 kW=1 PF=0.95
New Load.LOAD70 Phases=1 Bus1=757.1 kV=0.23 kW=1 PF=0.95
New Load.LOAD71 Phases=1 Bus1=758.2 kV=0.23 kW=1 PF=0.95
New Load.LOAD72 Phases=1 Bus1=759.3 kV=0.23 kW=1 PF=0.95
New Load.LOAD73 Phases=1 Bus1=761.1 kV=0.23 kW=1 PF=0.95
New Load.LOAD74 Phases=1 Bus1=766.2 kV=0.23 kW=1 PF=0.95
New Load.LOAD75 Phases=1 Bus1=770.3 kV=0.23 kW=1 PF=0.95
New Load.LOAD76 Phases=1 Bus1=771.1 kV=0.23 kW=1 PF=0.95
New Load.LOAD77 Phases=1 Bus1=772.2 kV=0.23 kW=1 PF=0.95
New Load.LOAD78 Phases=1 Bus1=773.3 kV=0.23 kW=1 PF=0.95
New Load.LOAD79 Phases=1 Bus1=774.1 kV=0.23 kW=1 PF=0.95
New Load.LOAD80 Phases=1 Bus1=775.2 kV=0.23 kW=1 PF=0.95
New Load.LOAD81 Phases=1 Bus1=776.3 kV=0.23 kW=1 PF=0.95
New Load.LOAD82 Phases=1 Bus1=777.1 kV=0.23 kW=1 PF=0.95
New Load.LOAD83 Phases=1 Bus1=787.2 kV=0.23 kW=1 PF=0.95
New Load.LOAD84 Phases=1 Bus1=834.3 kV=0.23 kW=1 PF=0.95
New Load.LOAD85 Phases=1 Bus1=853.1 kV=0.23 kW=1 PF=0.95
New Load.LOAD86 Phases=1 Bus1=898.2 kV=0.23 kW=1 PF=0.95