New Load.LOAD1 Phases=1 Bus1=234.2 kV=0.23 kW=1 PF=0.95
New Load.LOAD2 Phases=1 Bus1=271.1 kV=0.23 kW=1 PF=0.95
New Load.LOAD3 Phases=1 Bus1=308.1 kV=0.23 kW=1 PF=0.95
New Load.LOAD4 Phases=1 Bus1=381.2 kV=0.23 kW=1 PF=0.95
New Load.LOAD5 Phases=1 Bus1=385.3 kV=0.23 kW=1 PF=0.95
New Load.LOAD6 Phases=1 Bus1=393.3 kV=0.23 kW=1 PF=0.95
New Load.LOAD7 Phases=1 Bus1=411.3 kV=0.23 kW=1 PF=0.95
New Load.LOAD8 Phases=1 Bus1=470.2 kV=0.23 kW=1 PF=0.95
New Load.LOAD9 Phases=1 Bus1=509.1 kV=0.23 kW=1 PF=0.95
New Load.LOAD10 Phases=1 Bus1=517.3 kV=0.23 kW=1 PF=0.95
New Load.LOAD11 Phases=1 Bus1=518.3 kV=0.23 kW=1 PF=0.95
New Load.LOAD12 Phases=1 Bus1=556.2 kV=0.23 kW=1 PF=0.95
New Load.LOAD13 Phases=1 Bus1=562.3 kV=0.23 kW=1 PF=0.95
New Load.LOAD14 Phases=1 Bus1=566.1 kV=0.23 kW=1 PF=0.95
New Load.LOAD15 Phases=1 Bus1=571.3 kV=0.23 kW=1 PF=0.95
New Load.LOAD16 Phases=1 Bus1=597.2 kV=0.23 kW=1 PF=0.95
New Load.LOAD17 Phases=1 Bus1=619.1 kV=0.23 kW=1 PF=0.95
New Load.LOAD18 Phases=1 Bus1=620.2 kV=0.23 kW=1 PF=0.95
New Load.LOAD19 Phases=1 Bus1=632.3 kV=0.23 kW=1 PF=0.95
New Load.LOAD20 Phases=1 Bus1=660.3 kV=0.23 kW=1 PF=0.95
New Load.LOAD21 Phases=1 Bus1=661.2 kV=0.23 kW=1 PF=0.95
New Load.LOAD22 Phases=1 Bus1=680.2 kV=0.23 kW=1 PF=0.95
New Load.LOAD23 Phases=1 Bus1=719.2 kV=0.23 kW=1 PF=0.95
New Load.LOAD24 Phases=1 Bus1=742.2 kV=0.23 kW=1 PF=0.95
New Load.LOAD25 Phases=1 Bus1=754.3 kV=0.23 kW=1 PF=0.95
New Load.LOAD26 Phases=1 Bus1=767.2 kV=0.23 kW=1 PF=0.95
New Load.LOAD27 Phases=1 Bus1=771.3 kV=0.23 kW=1 PF=0.95
New Load.LOAD28 Phases=1 Bus1=772.3 kV=0.23 kW=1 PF=0.95
New Load.LOAD29 Phases=1 Bus1=796.2 kV=0.23 kW=1 PF=0.95
New Load.LOAD30 Phases=1 Bus1=812.3 kV=0.23 kW=1 PF=0.95
New Load.LOAD31 Phases=1 Bus1=832.2 kV=0.23 kW=1 PF=0.95
New Load.LOAD32 Phases=1 Bus1=836.2 kV=0.23 kW=1 PF=0.95
New Load.LOAD33 Phases=1 Bus1=839.3 kV=0.23 kW=1 PF=0.95
New Load.LOAD34 Phases=1 Bus1=845.1 kV=0.23 kW=1 PF=0.95
New Load.LOAD35 Phases=1 Bus1=848.3 kV=0.23 kW=1 PF=0.95
New Load.LOAD36 Phases=1 Bus1=861.1 kV=0.23 kW=1 PF=0.95
New Load.LOAD37 Phases=1 Bus1=864.3 kV=0.23 kW=1 PF=0.95
New Load.LOAD38 Phases=1 Bus1=865.3 kV=0.23 kW=1 PF=0.95
New Load.LOAD39 Phases=1 Bus1=869.3 kV=0.23 kW=1 PF=0.95
New Load.LOAD40 Phases=1 Bus1=870.3 kV=0.23 kW=1 PF=0.95
New Load.LOAD41 Phases=1 Bus1=877.3 kV=0.23 kW=1 PF=0.95
New Load.LOAD42 Phases=1 Bus1=885.2 kV=0.23 kW=1 PF=0.95
New Load.LOAD43 Phases=1 Bus1=897.1 kV=0.23 kW=1 PF=0.95
New Load.LOAD44 Phases=1 Bus1=916.1 kV=0.23 kW=1 PF=0.95
New Load.LOAD45 Phases=1 Bus1=977.1 kV=0.23 kW=1 PF=0.95
New Load.LOAD46 Phases=1 Bus1=1004.1 kV=0.23 kW=1 PF=0.95
New Load.LOAD47 Phases=1 Bus1=1015.1 kV=0.23 kW=1 PF=0.95
New Load.LOAD48 Phases=1 Bus1=1019.1 kV=0.23 kW=1 PF=0.95
New Load.LOAD49 Phases=1 Bus1=1020.2 kV=0.23 kW=1 PF=0.95
New Load.LOAD50 Phases=1 Bus1=1021.2 kV=0.23 kW=1 PF=0.95