New Load.LOAD1 Phases=1 Bus1=100.1 kV=0.23 kW=1 PF=0.95
New Load.LOAD2 Phases=1 Bus1=101.2 kV=0.23 kW=1 PF=0.95
New Load.LOAD3 Phases=1 Bus1=102.3 kV=0.23 kW=1 PF=0.95
New Load.LOAD4 Phases=1 Bus1=103.1 kV=0.23 kW=1 PF=0.95
New Load.LOAD5 Phases=1 Bus1=104.2 kV=0.23 kW=1 PF=0.95
New Load.LOAD6 Phases=1 Bus1=105.3 kV=0.23 kW=1 PF=0.95
New Load.LOAD7 Phases=1 Bus1=106.1 kV=0.23 kW=1 PF=0.95
New Load.LOAD8 Phases=1 Bus1=107.2 kV=0.23 kW=1 PF=0.95
New Load.LOAD9 Phases=1 Bus1=108.3 kV=0.23 kW=1 PF=0.95
New Load.LOAD10 Phases=1 Bus1=109.1 kV=0.23 kW=1 PF=0.95
New Load.LOAD11 Phases=1 Bus1=110.2 kV=0.23 kW=1 PF=0.95
New Load.LOAD12 Phases=1 Bus1=111.3 kV=0.23 kW=1 PF=0.95
New Load.LOAD13 Phases=1 Bus1=112.1 kV=0.23 kW=1 PF=0.95
New Load.LOAD14 Phases=1 Bus1=113.2 kV=0.23 kW=1 PF=0.95
New Load.LOAD15 Phases=1 Bus1=114.3 kV=0.23 kW=1 PF=0.95
New Load.LOAD16 Phases=1 Bus1=115.1 kV=0.23 kW=1 PF=0.95
New Load.LOAD17 Phases=1 Bus1=116.2 kV=0.23 kW=1 PF=0.95
New Load.LOAD18 Phases=1 Bus1=117.3 kV=0.23 kW=1 PF=0.95
New Load.LOAD19 Phases=1 Bus1=118.1 kV=0.23 kW=1 PF=0.95
New Load.LOAD20 Phases=1 Bus1=119.2 kV=0.23 kW=1 PF=0.95
New Load.LOAD21 Phases=1 Bus1=120.3 kV=0.23 kW=1 PF=0.95
New Load.LOAD22 Phases=1 Bus1=121.1 kV=0.23 kW=1 PF=0.95
New Load.LOAD23 Phases=1 Bus1=122.2 kV=0.23 kW=1 PF=0.95
New Load.LOAD24 Phases=1 Bus1=123.3 kV=0.23 kW=1 PF=0.95
New Load.LOAD25 Phases=1 Bus1=124.1 kV=0.23 kW=1 PF=0.95
New Load.LOAD26 Phases=1 Bus1=125.2 kV=0.23 kW=1 PF=0.95
New Load.LOAD27 Phases=1 Bus1=126.3 kV=0.23 kW=1 PF=0.95
New Load.LOAD28 Phases=1 Bus1=127.1 kV=0.23 kW=1 PF=0.95
New Load.LOAD29 Phases=1 Bus1=128.2 kV=0.23 kW=1 PF=0.95
New Load.LOAD30 Phases=1 Bus1=129.3 kV=0.23 kW=1 PF=0.95
New Load.LOAD31 Phases=1 Bus1=130.1 kV=0.23 kW=1 PF=0.95
New Load.LOAD32 Phases=1 Bus1=131.2 kV=0.23 kW=1 PF=0.95
New Load.LOAD33 Phases=1 Bus1=132.3 kV=0.23 kW=1 PF=0.95
New Load.LOAD34 Phases=1 Bus1=133.1 kV=0.23 kW=1 PF=0.95
New Load.LOAD35 Phases=1 Bus1=134.2 kV=0.23 kW=1 PF=0.95
New Load.LOAD36 Phases=1 Bus1=135.3 kV=0.23 kW=1 PF=0.95
New Load.LOAD37 Phases=1 Bus1=136.1 kV=0.23 kW=1 PF=0.95
New Load.LOAD38 Phases=1 Bus1=137.2 kV=0.23 kW=1 PF=0.95
New Load.LOAD39 Phases=1 Bus1=138.3 kV=0.23 kW=1 PF=0.95
New Load.LOAD40 Phases=1 Bus1=139.1 kV=0.23 kW=1 PF=0.95
New Load.LOAD41 Phases=1 Bus1=140.2 kV=0.23 kW=1 PF=0.95
New Load.LOAD42 Phases=1 Bus1=141.3 kV=0.23 kW=1 PF=0.95
New Load.LOAD43 Phases=1 Bus1=142.1 kV=0.23 kW=1 PF=0.95
New Load.LOAD44 Phases=1 Bus1=143.2 kV=0.23 kW=1 PF=0.95
New Load.LOAD45 Phases=1 Bus1=144.3 kV=0.23 kW=1 PF=0.95