New Load.LOAD1 Phases=1 Bus1=104.1 kV=0.23 kW=1 PF=0.95
New Load.LOAD2 Phases=1 Bus1=110.1 kV=0.23 kW=1 PF=0.95
New Load.LOAD3 Phases=1 Bus1=116.1 kV=0.23 kW=1 PF=0.95
New Load.LOAD4 Phases=1 Bus1=129.1 kV=0.23 kW=1 PF=0.95
New Load.LOAD5 Phases=1 Bus1=135.3 kV=0.23 kW=1 PF=0.95
New Load.LOAD6 Phases=1 Bus1=138.1 kV=0.23 kW=1 PF=0.95
New Load.LOAD7 Phases=1 Bus1=144.3 kV=0.23 kW=1 PF=0.95
New Load.LOAD8 Phases=1 Bus1=151.3 kV=0.23 kW=1 PF=0.95
New Load.LOAD9 Phases=1 Bus1=159.3 kV=0.23 kW=1 PF=0.95
New Load.LOAD10 Phases=1 Bus1=163.1 kV=0.23 kW=1 PF=0.95
New Load.LOAD11 Phases=1 Bus1=171.1 kV=0.23 kW=1 PF=0.95
New Load.LOAD12 Phases=1 Bus1=180.1 kV=0.23 kW=1 PF=0.95
New Load.LOAD13 Phases=1 Bus1=184.3 kV=0.23 kW=1 PF=0.95
New Load.LOAD14 Phases=1 Bus1=188.1 kV=0.23 kW=1 PF=0.95
New Load.LOAD15 Phases=1 Bus1=191.3 kV=0.23 kW=1 PF=0.95
New Load.LOAD16 Phases=1 Bus1=195.1 kV=0.23 kW=1 PF=0.95
New Load.LOAD17 Phases=1 Bus1=201.1 kV=0.23 kW=1 PF=0.95
New Load.LOAD18 Phases=1 Bus1=203.3 kV=0.23 kW=1 PF=0.95
New Load.LOAD19 Phases=1 Bus1=206.3 kV=0.23 kW=1 PF=0.95
New Load.LOAD20 Phases=1 Bus1=212.1 kV=0.23 kW=1 PF=0.95
New Load.LOAD21 Phases=1 Bus1=216.3 kV=0.23 kW=1 PF=0.95
New Load.LOAD22 Phases=1 Bus1=219.1 kV=0.23 kW=1 PF=0.95
New Load.LOAD23 Phases=1 Bus1=246.3 kV=0.23 kW=1 PF=0.95
New Load.LOAD24 Phases=1 Bus1=254.2 kV=0.23 kW=1 PF=0.95
New Load.LOAD25 Phases=1 Bus1=255.3 kV=0.23 kW=1 PF=0.95
New Load.LOAD26 Phases=1 Bus1=263.2 kV=0.23 kW=1 PF=0.95
New Load.LOAD27 Phases=1 Bus1=271.2 kV=0.23 kW=1 PF=0.95
New Load.LOAD28 Phases=1 Bus1=273.3 kV=0.23 kW=1 PF=0.95
New Load.LOAD29 Phases=1 Bus1=280.2 kV=0.23 kW=1 PF=0.95
New Load.LOAD30 Phases=1 Bus1=282.3 kV=0.23 kW=1 PF=0.95
New Load.LOAD31 Phases=1 Bus1=290.3 kV=0.23 kW=1 PF=0.95
New Load.LOAD32 Phases=1 Bus1=294.1 kV=0.23 kW=1 PF=0.95
New Load.LOAD33 Phases=1 Bus1=297.2 kV=0.23 kW=1 PF=0.95
New Load.LOAD34 Phases=1 Bus1=299.3 kV=0.23 kW=1 PF=0.95
New Load.LOAD35 Phases=1 Bus1=302.1 kV=0.23 kW=1 PF=0.95
New Load.LOAD36 Phases=1 Bus1=304.2 kV=0.23 kW=1 PF=0.95
New Load.LOAD37 Phases=1 Bus1=306.3 kV=0.23 kW=1 PF=0.95
New Load.LOAD38 Phases=1 Bus1=312.3 kV=0.23 kW=1 PF=0.95
New Load.LOAD39 Phases=1 Bus1=317.2 kV=0.23 kW=1 PF=0.95
New Load.LOAD40 Phases=1 Bus1=319.3 kV=0.23 kW=1 PF=0.95
New Load.LOAD41 Phases=1 Bus1=349.2 kV=0.23 kW=1 PF=0.95
New Load.LOAD42 Phases=1 Bus1=354.2 kV=0.23 kW=1 PF=0.95
New Load.LOAD43 Phases=1 Bus1=360.2 kV=0.23 kW=1 PF=0.95
New Load.LOAD44 Phases=1 Bus1=366.2 kV=0.23 kW=1 PF=0.95
New Load.LOAD45 Phases=1 Bus1=372.2 kV=0.23 kW=1 PF=0.95
New Load.LOAD46 Phases=1 Bus1=377.2 kV=0.23 kW=1 PF=0.95
New Load.LOAD47 Phases=1 Bus1=378.2 kV=0.23 kW=1 PF=0.95
New Load.LOAD48 Phases=1 Bus1=401.3 kV=0.23 kW=1 PF=0.95
New Load.LOAD49 Phases=1 Bus1=402.3 kV=0.23 kW=1 PF=0.95
New Load.LOAD50 Phases=1 Bus1=414.2 kV=0.23 kW=1 PF=0.95