New Load.LOAD1 Phases=1 Bus1=152.1 kV=0.23 kW=1 PF=0.95
New Load.LOAD2 Phases=1 Bus1=153.2 kV=0.23 kW=1 PF=0.95
New Load.LOAD3 Phases=1 Bus1=299.3 kV=0.23 kW=1 PF=0.95
New Load.LOAD4 Phases=1 Bus1=379.1 kV=0.23 kW=1 PF=0.95
New Load.LOAD5 Phases=1 Bus1=380.2 kV=0.23 kW=1 PF=0.95
New Load.LOAD6 Phases=1 Bus1=381.3 kV=0.23 kW=1 PF=0.95
New Load.LOAD7 Phases=1 Bus1=382.1 kV=0.23 kW=1 PF=0.95
New Load.LOAD8 Phases=1 Bus1=383.2 kV=0.23 kW=1 PF=0.95
New Load.LOAD9 Phases=1 Bus1=384.3 kV=0.23 kW=1 PF=0.95
New Load.LOAD10 Phases=1 Bus1=385.1 kV=0.23 kW=1 PF=0.95
New Load.LOAD11 Phases=1 Bus1=386.2 kV=0.23 kW=1 PF=0.95
New Load.LOAD12 Phases=1 Bus1=410.3 kV=0.23 kW=1 PF=0.95
New Load.LOAD13 Phases=1 Bus1=411.1 kV=0.23 kW=1 PF=0.95
New Load.LOAD14 Phases=1 Bus1=412.2 kV=0.23 kW=1 PF=0.95
New Load.LOAD15 Phases=1 Bus1=413.3 kV=0.23 kW=1 PF=0.95
New Load.LOAD16 Phases=1 Bus1=491.1 kV=0.23 kW=1 PF=0.95
New Load.LOAD17 Phases=1 Bus1=604.1 kV=0.23 kW=1 PF=0.95
New Load.LOAD18 Phases=1 Bus1=618.2 kV=0.23 kW=1 PF=0.95
New Load.LOAD19 Phases=1 Bus1=632.1 kV=0.23 kW=1 PF=0.95
New Load.LOAD20 Phases=1 Bus1=680.2 kV=0.23 kW=1 PF=0.95
New Load.LOAD21 Phases=1 Bus1=713.3 kV=0.23 kW=1 PF=0.95
New Load.LOAD22 Phases=1 Bus1=730.1 kV=0.23 kW=1 PF=0.95
New Load.LOAD23 Phases=1 Bus1=733.3 kV=0.23 kW=1 PF=0.95
New Load.LOAD24 Phases=1 Bus1=734.3 kV=0.23 kW=1 PF=0.95
New Load.LOAD25 Phases=1 Bus1=743.2 kV=0.23 kW=1 PF=0.95
New Load.LOAD26 Phases=1 Bus1=916.2 kV=0.23 kW=1 PF=0.95
New Load.LOAD27 Phases=1 Bus1=935.3 kV=0.23 kW=1 PF=0.95
New Load.LOAD28 Phases=1 Bus1=967.3 kV=0.23 kW=1 PF=0.95
New Load.LOAD29 Phases=1 Bus1=985.1 kV=0.23 kW=1 PF=0.95
New Load.LOAD30 Phases=1 Bus1=1043.1 kV=0.23 kW=1 PF=0.95
New Load.LOAD31 Phases=1 Bus1=1044.2 kV=0.23 kW=1 PF=0.95
New Load.LOAD32 Phases=1 Bus1=1067.2 kV=0.23 kW=1 PF=0.95
New Load.LOAD33 Phases=1 Bus1=1068.2 kV=0.23 kW=1 PF=0.95
New Load.LOAD34 Phases=1 Bus1=1069.2 kV=0.23 kW=1 PF=0.95
New Load.LOAD35 Phases=1 Bus1=1317.3 kV=0.23 kW=1 PF=0.95
New Load.LOAD36 Phases=1 Bus1=1320.2 kV=0.23 kW=1 PF=0.95
New Load.LOAD37 Phases=1 Bus1=1361.1 kV=0.23 kW=1 PF=0.95
New Load.LOAD38 Phases=1 Bus1=1378.1 kV=0.23 kW=1 PF=0.95
New Load.LOAD39 Phases=1 Bus1=1446.3 kV=0.23 kW=1 PF=0.95
New Load.LOAD40 Phases=1 Bus1=1481.3 kV=0.23 kW=1 PF=0.95
New Load.LOAD41 Phases=1 Bus1=1484.3 kV=0.23 kW=1 PF=0.95
New Load.LOAD42 Phases=1 Bus1=1488.2 kV=0.23 kW=1 PF=0.95
New Load.LOAD43 Phases=1 Bus1=1503.1 kV=0.23 kW=1 PF=0.95
New Load.LOAD44 Phases=1 Bus1=1504.1 kV=0.23 kW=1 PF=0.95
New Load.LOAD45 Phases=1 Bus1=1505.1 kV=0.23 kW=1 PF=0.95
New Load.LOAD46 Phases=1 Bus1=1513.1 kV=0.23 kW=1 PF=0.95
New Load.LOAD47 Phases=1 Bus1=1516.1 kV=0.23 kW=1 PF=0.95
New Load.LOAD48 Phases=1 Bus1=1535.1 kV=0.23 kW=1 PF=0.95
New Load.LOAD49 Phases=1 Bus1=1588.2 kV=0.23 kW=1 PF=0.95
New Load.LOAD50 Phases=1 Bus1=1589.3 kV=0.23 kW=1 PF=0.95
New Load.LOAD51 Phases=1 Bus1=1590.1 kV=0.23 kW=1 PF=0.95
New Load.LOAD52 Phases=1 Bus1=1607.3 kV=0.23 kW=1 PF=0.95
New Load.LOAD53 Phases=1 Bus1=1609.2 kV=0.23 kW=1 PF=0.95
New Load.LOAD54 Phases=1 Bus1=1610.2 kV=0.23 kW=1 PF=0.95
New Load.LOAD55 Phases=1 Bus1=1620.3 kV=0.23 kW=1 PF=0.95
New Load.LOAD56 Phases=1 Bus1=1655.1 kV=0.23 kW=1 PF=0.95
New Load.LOAD57 Phases=1 Bus1=1689.1 kV=0.23 kW=1 PF=0.95
New Load.LOAD58 Phases=1 Bus1=1697.2 kV=0.23 kW=1 PF=0.95
New Load.LOAD59 Phases=1 Bus1=1700.2 kV=0.23 kW=1 PF=0.95
New Load.LOAD60 Phases=1 Bus1=1721.3 kV=0.23 kW=1 PF=0.95
New Load.LOAD61 Phases=1 Bus1=1722.2 kV=0.23 kW=1 PF=0.95
New Load.LOAD62 Phases=1 Bus1=1752.2 kV=0.23 kW=1 PF=0.95
New Load.LOAD63 Phases=1 Bus1=1761.1 kV=0.23 kW=1 PF=0.95
New Load.LOAD64 Phases=1 Bus1=1777.1 kV=0.23 kW=1 PF=0.95
New Load.LOAD65 Phases=1 Bus1=1783.3 kV=0.23 kW=1 PF=0.95
New Load.LOAD66 Phases=1 Bus1=1784.3 kV=0.23 kW=1 PF=0.95
New Load.LOAD67 Phases=1 Bus1=1791.3 kV=0.23 kW=1 PF=0.95
New Load.LOAD68 Phases=1 Bus1=1792.1 kV=0.23 kW=1 PF=0.95