New Load.LOAD1 Phases=1 Bus1=252.1 kV=0.23 kW=1 PF=0.95
New Load.LOAD2 Phases=1 Bus1=310.1 kV=0.23 kW=1 PF=0.95
New Load.LOAD3 Phases=1 Bus1=326.3 kV=0.23 kW=1 PF=0.95
New Load.LOAD4 Phases=1 Bus1=383.1 kV=0.23 kW=1 PF=0.95
New Load.LOAD5 Phases=1 Bus1=414.2 kV=0.23 kW=1 PF=0.95
New Load.LOAD6 Phases=1 Bus1=425.1 kV=0.23 kW=1 PF=0.95
New Load.LOAD7 Phases=1 Bus1=430.2 kV=0.23 kW=1 PF=0.95
New Load.LOAD8 Phases=1 Bus1=442.3 kV=0.23 kW=1 PF=0.95
New Load.LOAD9 Phases=1 Bus1=532.1 kV=0.23 kW=1 PF=0.95
New Load.LOAD10 Phases=1 Bus1=536.2 kV=0.23 kW=1 PF=0.95
New Load.LOAD11 Phases=1 Bus1=545.3 kV=0.23 kW=1 PF=0.95
New Load.LOAD12 Phases=1 Bus1=553.2 kV=0.23 kW=1 PF=0.95
New Load.LOAD13 Phases=1 Bus1=570.1 kV=0.23 kW=1 PF=0.95
New Load.LOAD14 Phases=1 Bus1=696.1 kV=0.23 kW=1 PF=0.95
New Load.LOAD15 Phases=1 Bus1=715.1 kV=0.23 kW=1 PF=0.95
New Load.LOAD16 Phases=1 Bus1=906.1 kV=0.23 kW=1 PF=0.95
New Load.LOAD17 Phases=1 Bus1=921.3 kV=0.23 kW=1 PF=0.95
New Load.LOAD18 Phases=1 Bus1=925.1 kV=0.23 kW=1 PF=0.95
New Load.LOAD19 Phases=1 Bus1=1039.1 kV=0.23 kW=1 PF=0.95
New Load.LOAD20 Phases=1 Bus1=1056.3 kV=0.23 kW=1 PF=0.95
New Load.LOAD21 Phases=1 Bus1=1071.3 kV=0.23 kW=1 PF=0.95
New Load.LOAD22 Phases=1 Bus1=1072.3 kV=0.23 kW=1 PF=0.95
New Load.LOAD23 Phases=1 Bus1=1090.1 kV=0.23 kW=1 PF=0.95
New Load.LOAD24 Phases=1 Bus1=1093.1 kV=0.23 kW=1 PF=0.95
New Load.LOAD25 Phases=1 Bus1=1106.3 kV=0.23 kW=1 PF=0.95
New Load.LOAD26 Phases=1 Bus1=1115.3 kV=0.23 kW=1 PF=0.95
New Load.LOAD27 Phases=1 Bus1=1138.1 kV=0.23 kW=1 PF=0.95
New Load.LOAD28 Phases=1 Bus1=1162.1 kV=0.23 kW=1 PF=0.95
New Load.LOAD29 Phases=1 Bus1=1163.1 kV=0.23 kW=1 PF=0.95
New Load.LOAD30 Phases=1 Bus1=1213.2 kV=0.23 kW=1 PF=0.95
New Load.LOAD31 Phases=1 Bus1=1214.2 kV=0.23 kW=1 PF=0.95
New Load.LOAD32 Phases=1 Bus1=1271.3 kV=0.23 kW=1 PF=0.95
New Load.LOAD33 Phases=1 Bus1=1272.3 kV=0.23 kW=1 PF=0.95
New Load.LOAD34 Phases=1 Bus1=1299.3 kV=0.23 kW=1 PF=0.95
New Load.LOAD35 Phases=1 Bus1=1321.1 kV=0.23 kW=1 PF=0.95
New Load.LOAD36 Phases=1 Bus1=1322.1 kV=0.23 kW=1 PF=0.95
New Load.LOAD37 Phases=1 Bus1=1346.2 kV=0.23 kW=1 PF=0.95
New Load.LOAD38 Phases=1 Bus1=1347.2 kV=0.23 kW=1 PF=0.95
New Load.LOAD39 Phases=1 Bus1=1394.1 kV=0.23 kW=1 PF=0.95
New Load.LOAD40 Phases=1 Bus1=1395.1 kV=0.23 kW=1 PF=0.95
New Load.LOAD41 Phases=1 Bus1=1396.3 kV=0.23 kW=1 PF=0.95
New Load.LOAD42 Phases=1 Bus1=1397.3 kV=0.23 kW=1 PF=0.95
New Load.LOAD43 Phases=1 Bus1=1452.3 kV=0.23 kW=1 PF=0.95
New Load.LOAD44 Phases=1 Bus1=1534.3 kV=0.23 kW=1 PF=0.95
New Load.LOAD45 Phases=1 Bus1=1734.3 kV=0.23 kW=1 PF=0.95
New Load.LOAD46 Phases=1 Bus1=1774.3 kV=0.23 kW=1 PF=0.95
New Load.LOAD47 Phases=1 Bus1=1901.1 kV=0.23 kW=1 PF=0.95
New Load.LOAD48 Phases=1 Bus1=1903.3 kV=0.23 kW=1 PF=0.95
New Load.LOAD49 Phases=1 Bus1=1904.3 kV=0.23 kW=1 PF=0.95
New Load.LOAD50 Phases=1 Bus1=1906.2 kV=0.23 kW=1 PF=0.95
New Load.LOAD51 Phases=1 Bus1=1988.2 kV=0.23 kW=1 PF=0.95
New Load.LOAD52 Phases=1 Bus1=1989.2 kV=0.23 kW=1 PF=0.95
New Load.LOAD53 Phases=1 Bus1=1991.1 kV=0.23 kW=1 PF=0.95
New Load.LOAD54 Phases=1 Bus1=2035.1 kV=0.23 kW=1 PF=0.95
New Load.LOAD55 Phases=1 Bus1=2036.1 kV=0.23 kW=1 PF=0.95
New Load.LOAD56 Phases=1 Bus1=2041.2 kV=0.23 kW=1 PF=0.95
New Load.LOAD57 Phases=1 Bus1=2043.1 kV=0.23 kW=1 PF=0.95
New Load.LOAD58 Phases=1 Bus1=2045.3 kV=0.23 kW=1 PF=0.95
New Load.LOAD59 Phases=1 Bus1=2113.1 kV=0.23 kW=1 PF=0.95
New Load.LOAD60 Phases=1 Bus1=2116.3 kV=0.23 kW=1 PF=0.95
New Load.LOAD61 Phases=1 Bus1=2117.3 kV=0.23 kW=1 PF=0.95
New Load.LOAD62 Phases=1 Bus1=2126.1 kV=0.23 kW=1 PF=0.95
New Load.LOAD63 Phases=1 Bus1=2127.1 kV=0.23 kW=1 PF=0.95
New Load.LOAD64 Phases=1 Bus1=2157.2 kV=0.23 kW=1 PF=0.95
New Load.LOAD65 Phases=1 Bus1=2230.2 kV=0.23 kW=1 PF=0.95
New Load.LOAD66 Phases=1 Bus1=2233.1 kV=0.23 kW=1 PF=0.95
New Load.LOAD67 Phases=1 Bus1=2234.1 kV=0.23 kW=1 PF=0.95
New Load.LOAD68 Phases=1 Bus1=2235.1 kV=0.23 kW=1 PF=0.95
New Load.LOAD69 Phases=1 Bus1=2236.1 kV=0.23 kW=1 PF=0.95
New Load.LOAD70 Phases=1 Bus1=2237.1 kV=0.23 kW=1 PF=0.95
New Load.LOAD71 Phases=1 Bus1=2238.1 kV=0.23 kW=1 PF=0.95
New Load.LOAD72 Phases=1 Bus1=2245.1 kV=0.23 kW=1 PF=0.95
New Load.LOAD73 Phases=1 Bus1=2281.1 kV=0.23 kW=1 PF=0.95
New Load.LOAD74 Phases=1 Bus1=2335.3 kV=0.23 kW=1 PF=0.95
New Load.LOAD75 Phases=1 Bus1=2337.2 kV=0.23 kW=1 PF=0.95
New Load.LOAD76 Phases=1 Bus1=2396.2 kV=0.23 kW=1 PF=0.95
New Load.LOAD77 Phases=1 Bus1=2400.3 kV=0.23 kW=1 PF=0.95
New Load.LOAD78 Phases=1 Bus1=2419.2 kV=0.23 kW=1 PF=0.95
New Load.LOAD79 Phases=1 Bus1=2420.2 kV=0.23 kW=1 PF=0.95
New Load.LOAD80 Phases=1 Bus1=2425.2 kV=0.23 kW=1 PF=0.95
New Load.LOAD81 Phases=1 Bus1=2447.2 kV=0.23 kW=1 PF=0.95
New Load.LOAD82 Phases=1 Bus1=2463.1 kV=0.23 kW=1 PF=0.95
New Load.LOAD83 Phases=1 Bus1=2464.1 kV=0.23 kW=1 PF=0.95
New Load.LOAD84 Phases=1 Bus1=2484.1 kV=0.23 kW=1 PF=0.95
New Load.LOAD85 Phases=1 Bus1=2485.1 kV=0.23 kW=1 PF=0.95
New Load.LOAD86 Phases=1 Bus1=2583.2 kV=0.23 kW=1 PF=0.95
New Load.LOAD87 Phases=1 Bus1=2584.2 kV=0.23 kW=1 PF=0.95
New Load.LOAD88 Phases=1 Bus1=2588.3 kV=0.23 kW=1 PF=0.95
New Load.LOAD89 Phases=1 Bus1=2603.2 kV=0.23 kW=1 PF=0.95
New Load.LOAD90 Phases=1 Bus1=2611.3 kV=0.23 kW=1 PF=0.95
New Load.LOAD91 Phases=1 Bus1=2612.3 kV=0.23 kW=1 PF=0.95
New Load.LOAD92 Phases=1 Bus1=2626.2 kV=0.23 kW=1 PF=0.95
New Load.LOAD93 Phases=1 Bus1=2627.2 kV=0.23 kW=1 PF=0.95
New Load.LOAD94 Phases=1 Bus1=2637.2 kV=0.23 kW=1 PF=0.95
New Load.LOAD95 Phases=1 Bus1=2642.2 kV=0.23 kW=1 PF=0.95
New Load.LOAD96 Phases=1 Bus1=2666.2 kV=0.23 kW=1 PF=0.95
New Load.LOAD97 Phases=1 Bus1=2673.3 kV=0.23 kW=1 PF=0.95
New Load.LOAD98 Phases=1 Bus1=2674.3 kV=0.23 kW=1 PF=0.95
New Load.LOAD99 Phases=1 Bus1=2680.3 kV=0.23 kW=1 PF=0.95
New Load.LOAD100 Phases=1 Bus1=2702.1 kV=0.23 kW=1 PF=0.95
New Load.LOAD101 Phases=1 Bus1=2706.2 kV=0.23 kW=1 PF=0.95
New Load.LOAD102 Phases=1 Bus1=2707.1 kV=0.23 kW=1 PF=0.95
New Load.LOAD103 Phases=1 Bus1=2719.3 kV=0.23 kW=1 PF=0.95
New Load.LOAD104 Phases=1 Bus1=2728.3 kV=0.23 kW=1 PF=0.95
New Load.LOAD105 Phases=1 Bus1=2730.1 kV=0.23 kW=1 PF=0.95
New Load.LOAD106 Phases=1 Bus1=2737.1 kV=0.23 kW=1 PF=0.95
New Load.LOAD107 Phases=1 Bus1=2752.2 kV=0.23 kW=1 PF=0.95