New Load.LOAD1 Phases=1 Bus1=306.1 kV=0.23 kW=1 PF=0.95
New Load.LOAD2 Phases=1 Bus1=351.2 kV=0.23 kW=1 PF=0.95
New Load.LOAD3 Phases=1 Bus1=360.3 kV=0.23 kW=1 PF=0.95
New Load.LOAD4 Phases=1 Bus1=465.1 kV=0.23 kW=1 PF=0.95
New Load.LOAD5 Phases=1 Bus1=548.2 kV=0.23 kW=1 PF=0.95
New Load.LOAD6 Phases=1 Bus1=556.3 kV=0.23 kW=1 PF=0.95
New Load.LOAD7 Phases=1 Bus1=584.1 kV=0.23 kW=1 PF=0.95
New Load.LOAD8 Phases=1 Bus1=592.2 kV=0.23 kW=1 PF=0.95
New Load.LOAD9 Phases=1 Bus1=631.2 kV=0.23 kW=1 PF=0.95
New Load.LOAD10 Phases=1 Bus1=655.1 kV=0.23 kW=1 PF=0.95
New Load.LOAD11 Phases=1 Bus1=659.1 kV=0.23 kW=1 PF=0.95
New Load.LOAD12 Phases=1 Bus1=694.3 kV=0.23 kW=1 PF=0.95
New Load.LOAD13 Phases=1 Bus1=698.1 kV=0.23 kW=1 PF=0.95
New Load.LOAD14 Phases=1 Bus1=753.2 kV=0.23 kW=1 PF=0.95
New Load.LOAD15 Phases=1 Bus1=754.2 kV=0.23 kW=1 PF=0.95
New Load.LOAD16 Phases=1 Bus1=755.2 kV=0.23 kW=1 PF=0.95
New Load.LOAD17 Phases=1 Bus1=792.3 kV=0.23 kW=1 PF=0.95
New Load.LOAD18 Phases=1 Bus1=812.1 kV=0.23 kW=1 PF=0.95
New Load.LOAD19 Phases=1 Bus1=813.2 kV=0.23 kW=1 PF=0.95
New Load.LOAD20 Phases=1 Bus1=814.3 kV=0.23 kW=1 PF=0.95
New Load.LOAD21 Phases=1 Bus1=815.1 kV=0.23 kW=1 PF=0.95
New Load.LOAD22 Phases=1 Bus1=816.2 kV=0.23 kW=1 PF=0.95
New Load.LOAD23 Phases=1 Bus1=817.3 kV=0.23 kW=1 PF=0.95
New Load.LOAD24 Phases=1 Bus1=818.1 kV=0.23 kW=1 PF=0.95
New Load.LOAD25 Phases=1 Bus1=819.2 kV=0.23 kW=1 PF=0.95
New Load.LOAD26 Phases=1 Bus1=820.3 kV=0.23 kW=1 PF=0.95
New Load.LOAD27 Phases=1 Bus1=821.1 kV=0.23 kW=1 PF=0.95
New Load.LOAD28 Phases=1 Bus1=822.2 kV=0.23 kW=1 PF=0.95
New Load.LOAD29 Phases=1 Bus1=836.3 kV=0.23 kW=1 PF=0.95
New Load.LOAD30 Phases=1 Bus1=837.1 kV=0.23 kW=1 PF=0.95
New Load.LOAD31 Phases=1 Bus1=838.2 kV=0.23 kW=1 PF=0.95
New Load.LOAD32 Phases=1 Bus1=839.3 kV=0.23 kW=1 PF=0.95
New Load.LOAD33 Phases=1 Bus1=840.1 kV=0.23 kW=1 PF=0.95
New Load.LOAD34 Phases=1 Bus1=841.2 kV=0.23 kW=1 PF=0.95
New Load.LOAD35 Phases=1 Bus1=842.3 kV=0.23 kW=1 PF=0.95
New Load.LOAD36 Phases=1 Bus1=884.1 kV=0.23 kW=1 PF=0.95
New Load.LOAD37 Phases=1 Bus1=897.2 kV=0.23 kW=1 PF=0.95
New Load.LOAD38 Phases=1 Bus1=908.3 kV=0.23 kW=1 PF=0.95
New Load.LOAD39 Phases=1 Bus1=935.1 kV=0.23 kW=1 PF=0.95
New Load.LOAD40 Phases=1 Bus1=936.1 kV=0.23 kW=1 PF=0.95
New Load.LOAD41 Phases=1 Bus1=937.1 kV=0.23 kW=1 PF=0.95
New Load.LOAD42 Phases=1 Bus1=956.3 kV=0.23 kW=1 PF=0.95
New Load.LOAD43 Phases=1 Bus1=973.1 kV=0.23 kW=1 PF=0.95
New Load.LOAD44 Phases=1 Bus1=981.2 kV=0.23 kW=1 PF=0.95
New Load.LOAD45 Phases=1 Bus1=985.3 kV=0.23 kW=1 PF=0.95
New Load.LOAD46 Phases=1 Bus1=989.2 kV=0.23 kW=1 PF=0.95
New Load.LOAD47 Phases=1 Bus1=999.3 kV=0.23 kW=1 PF=0.95
New Load.LOAD48 Phases=1 Bus1=1002.1 kV=0.23 kW=1 PF=0.95
New Load.LOAD49 Phases=1 Bus1=1007.2 kV=0.23 kW=1 PF=0.95
New Load.LOAD50 Phases=1 Bus1=1009.1 kV=0.23 kW=1 PF=0.95
New Load.LOAD51 Phases=1 Bus1=1010.2 kV=0.23 kW=1 PF=0.95
New Load.LOAD52 Phases=1 Bus1=1026.2 kV=0.23 kW=1 PF=0.95
New Load.LOAD53 Phases=1 Bus1=1029.1 kV=0.23 kW=1 PF=0.95
New Load.LOAD54 Phases=1 Bus1=1066.3 kV=0.23 kW=1 PF=0.95
New Load.LOAD55 Phases=1 Bus1=1069.1 kV=0.23 kW=1 PF=0.95
New Load.LOAD56 Phases=1 Bus1=1072.2 kV=0.23 kW=1 PF=0.95