New Load.LOAD1 Phases=1 Bus1=87.1 kV=0.23 kW=1 PF=0.95
New Load.LOAD2 Phases=1 Bus1=88.2 kV=0.23 kW=1 PF=0.95
New Load.LOAD3 Phases=1 Bus1=89.3 kV=0.23 kW=1 PF=0.95
New Load.LOAD4 Phases=1 Bus1=90.1 kV=0.23 kW=1 PF=0.95
New Load.LOAD5 Phases=1 Bus1=91.2 kV=0.23 kW=1 PF=0.95
New Load.LOAD6 Phases=1 Bus1=92.3 kV=0.23 kW=1 PF=0.95
New Load.LOAD7 Phases=1 Bus1=93.1 kV=0.23 kW=1 PF=0.95
New Load.LOAD8 Phases=1 Bus1=94.2 kV=0.23 kW=1 PF=0.95
New Load.LOAD9 Phases=1 Bus1=95.3 kV=0.23 kW=1 PF=0.95
New Load.LOAD10 Phases=1 Bus1=96.1 kV=0.23 kW=1 PF=0.95
New Load.LOAD11 Phases=1 Bus1=97.2 kV=0.23 kW=1 PF=0.95
New Load.LOAD12 Phases=1 Bus1=98.3 kV=0.23 kW=1 PF=0.95
New Load.LOAD13 Phases=1 Bus1=99.1 kV=0.23 kW=1 PF=0.95
New Load.LOAD14 Phases=1 Bus1=100.2 kV=0.23 kW=1 PF=0.95
New Load.LOAD15 Phases=1 Bus1=101.3 kV=0.23 kW=1 PF=0.95
New Load.LOAD16 Phases=1 Bus1=102.1 kV=0.23 kW=1 PF=0.95
New Load.LOAD17 Phases=1 Bus1=103.2 kV=0.23 kW=1 PF=0.95
New Load.LOAD18 Phases=1 Bus1=104.3 kV=0.23 kW=1 PF=0.95
New Load.LOAD19 Phases=1 Bus1=105.1 kV=0.23 kW=1 PF=0.95
New Load.LOAD20 Phases=1 Bus1=106.2 kV=0.23 kW=1 PF=0.95