New Load.LOAD1 Phases=1 Bus1=118.1 kV=0.23 kW=1 PF=0.95
New Load.LOAD2 Phases=1 Bus1=122.2 kV=0.23 kW=1 PF=0.95
New Load.LOAD3 Phases=1 Bus1=167.2 kV=0.23 kW=1 PF=0.95
New Load.LOAD4 Phases=1 Bus1=175.1 kV=0.23 kW=1 PF=0.95
New Load.LOAD5 Phases=1 Bus1=199.1 kV=0.23 kW=1 PF=0.95
New Load.LOAD6 Phases=1 Bus1=216.1 kV=0.23 kW=1 PF=0.95
New Load.LOAD7 Phases=1 Bus1=232.2 kV=0.23 kW=1 PF=0.95
New Load.LOAD8 Phases=1 Bus1=241.2 kV=0.23 kW=1 PF=0.95
New Load.LOAD9 Phases=1 Bus1=269.3 kV=0.23 kW=1 PF=0.95
New Load.LOAD10 Phases=1 Bus1=281.3 kV=0.23 kW=1 PF=0.95
New Load.LOAD11 Phases=1 Bus1=285.1 kV=0.23 kW=1 PF=0.95
New Load.LOAD12 Phases=1 Bus1=305.1 kV=0.23 kW=1 PF=0.95
New Load.LOAD13 Phases=1 Bus1=333.2 kV=0.23 kW=1 PF=0.95
New Load.LOAD14 Phases=1 Bus1=341.1 kV=0.23 kW=1 PF=0.95
New Load.LOAD15 Phases=1 Bus1=355.1 kV=0.23 kW=1 PF=0.95
New Load.LOAD16 Phases=1 Bus1=384.2 kV=0.23 kW=1 PF=0.95
New Load.LOAD17 Phases=1 Bus1=406.2 kV=0.23 kW=1 PF=0.95
New Load.LOAD18 Phases=1 Bus1=407.2 kV=0.23 kW=1 PF=0.95
New Load.LOAD19 Phases=1 Bus1=422.2 kV=0.23 kW=1 PF=0.95
New Load.LOAD20 Phases=1 Bus1=453.2 kV=0.23 kW=1 PF=0.95
New Load.LOAD21 Phases=1 Bus1=490.1 kV=0.23 kW=1 PF=0.95
New Load.LOAD22 Phases=1 Bus1=500.2 kV=0.23 kW=1 PF=0.95
New Load.LOAD23 Phases=1 Bus1=507.3 kV=0.23 kW=1 PF=0.95
New Load.LOAD24 Phases=1 Bus1=526.2 kV=0.23 kW=1 PF=0.95
New Load.LOAD25 Phases=1 Bus1=541.2 kV=0.23 kW=1 PF=0.95
New Load.LOAD26 Phases=1 Bus1=543.2 kV=0.23 kW=1 PF=0.95
New Load.LOAD27 Phases=1 Bus1=544.2 kV=0.23 kW=1 PF=0.95
New Load.LOAD28 Phases=1 Bus1=547.3 kV=0.23 kW=1 PF=0.95
New Load.LOAD29 Phases=1 Bus1=562.1 kV=0.23 kW=1 PF=0.95
New Load.LOAD30 Phases=1 Bus1=566.2 kV=0.23 kW=1 PF=0.95
New Load.LOAD31 Phases=1 Bus1=607.3 kV=0.23 kW=1 PF=0.95
New Load.LOAD32 Phases=1 Bus1=608.1 kV=0.23 kW=1 PF=0.95
New Load.LOAD33 Phases=1 Bus1=620.2 kV=0.23 kW=1 PF=0.95
New Load.LOAD34 Phases=1 Bus1=624.2 kV=0.23 kW=1 PF=0.95
New Load.LOAD35 Phases=1 Bus1=627.1 kV=0.23 kW=1 PF=0.95
New Load.LOAD36 Phases=1 Bus1=661.3 kV=0.23 kW=1 PF=0.95
New Load.LOAD37 Phases=1 Bus1=670.2 kV=0.23 kW=1 PF=0.95
New Load.LOAD38 Phases=1 Bus1=679.1 kV=0.23 kW=1 PF=0.95
New Load.LOAD39 Phases=1 Bus1=707.2 kV=0.23 kW=1 PF=0.95
New Load.LOAD40 Phases=1 Bus1=716.2 kV=0.23 kW=1 PF=0.95
New Load.LOAD41 Phases=1 Bus1=726.3 kV=0.23 kW=1 PF=0.95
New Load.LOAD42 Phases=1 Bus1=732.3 kV=0.23 kW=1 PF=0.95
New Load.LOAD43 Phases=1 Bus1=750.1 kV=0.23 kW=1 PF=0.95
New Load.LOAD44 Phases=1 Bus1=754.3 kV=0.23 kW=1 PF=0.95
New Load.LOAD45 Phases=1 Bus1=803.3 kV=0.23 kW=1 PF=0.95
New Load.LOAD46 Phases=1 Bus1=827.3 kV=0.23 kW=1 PF=0.95
New Load.LOAD47 Phases=1 Bus1=829.1 kV=0.23 kW=1 PF=0.95
New Load.LOAD48 Phases=1 Bus1=836.3 kV=0.23 kW=1 PF=0.95
New Load.LOAD49 Phases=1 Bus1=873.2 kV=0.23 kW=1 PF=0.95
New Load.LOAD50 Phases=1 Bus1=877.2 kV=0.23 kW=1 PF=0.95
New Load.LOAD51 Phases=1 Bus1=882.2 kV=0.23 kW=1 PF=0.95
New Load.LOAD52 Phases=1 Bus1=891.3 kV=0.23 kW=1 PF=0.95
New Load.LOAD53 Phases=1 Bus1=900.2 kV=0.23 kW=1 PF=0.95
New Load.LOAD54 Phases=1 Bus1=907.2 kV=0.23 kW=1 PF=0.95
New Load.LOAD55 Phases=1 Bus1=926.1 kV=0.23 kW=1 PF=0.95
New Load.LOAD56 Phases=1 Bus1=930.1 kV=0.23 kW=1 PF=0.95
New Load.LOAD57 Phases=1 Bus1=934.2 kV=0.23 kW=1 PF=0.95
New Load.LOAD58 Phases=1 Bus1=938.2 kV=0.23 kW=1 PF=0.95
New Load.LOAD59 Phases=1 Bus1=950.1 kV=0.23 kW=1 PF=0.95
New Load.LOAD60 Phases=1 Bus1=956.2 kV=0.23 kW=1 PF=0.95
New Load.LOAD61 Phases=1 Bus1=957.2 kV=0.23 kW=1 PF=0.95
New Load.LOAD62 Phases=1 Bus1=969.2 kV=0.23 kW=1 PF=0.95
New Load.LOAD63 Phases=1 Bus1=974.2 kV=0.23 kW=1 PF=0.95
New Load.LOAD64 Phases=1 Bus1=975.1 kV=0.23 kW=1 PF=0.95
New Load.LOAD65 Phases=1 Bus1=989.3 kV=0.23 kW=1 PF=0.95
New Load.LOAD66 Phases=1 Bus1=994.1 kV=0.23 kW=1 PF=0.95
New Load.LOAD67 Phases=1 Bus1=1006.2 kV=0.23 kW=1 PF=0.95
New Load.LOAD68 Phases=1 Bus1=1016.3 kV=0.23 kW=1 PF=0.95
New Load.LOAD69 Phases=1 Bus1=1018.2 kV=0.23 kW=1 PF=0.95
New Load.LOAD70 Phases=1 Bus1=1027.2 kV=0.23 kW=1 PF=0.95
New Load.LOAD71 Phases=1 Bus1=1039.2 kV=0.23 kW=1 PF=0.95
New Load.LOAD72 Phases=1 Bus1=1071.2 kV=0.23 kW=1 PF=0.95
New Load.LOAD73 Phases=1 Bus1=1076.2 kV=0.23 kW=1 PF=0.95