New Load.LOAD1 Phases=1 Bus1=175.1 kV=0.23 kW=1 PF=0.95
New Load.LOAD2 Phases=1 Bus1=188.2 kV=0.23 kW=1 PF=0.95
New Load.LOAD3 Phases=1 Bus1=192.2 kV=0.23 kW=1 PF=0.95
New Load.LOAD4 Phases=1 Bus1=275.1 kV=0.23 kW=1 PF=0.95
New Load.LOAD5 Phases=1 Bus1=302.3 kV=0.23 kW=1 PF=0.95
New Load.LOAD6 Phases=1 Bus1=448.3 kV=0.23 kW=1 PF=0.95
New Load.LOAD7 Phases=1 Bus1=493.1 kV=0.23 kW=1 PF=0.95
New Load.LOAD8 Phases=1 Bus1=513.3 kV=0.23 kW=1 PF=0.95
New Load.LOAD9 Phases=1 Bus1=538.3 kV=0.23 kW=1 PF=0.95
New Load.LOAD10 Phases=1 Bus1=570.1 kV=0.23 kW=1 PF=0.95
New Load.LOAD11 Phases=1 Bus1=583.2 kV=0.23 kW=1 PF=0.95
New Load.LOAD12 Phases=1 Bus1=594.3 kV=0.23 kW=1 PF=0.95
New Load.LOAD13 Phases=1 Bus1=645.3 kV=0.23 kW=1 PF=0.95
New Load.LOAD14 Phases=1 Bus1=677.2 kV=0.23 kW=1 PF=0.95
New Load.LOAD15 Phases=1 Bus1=821.1 kV=0.23 kW=1 PF=0.95
New Load.LOAD16 Phases=1 Bus1=959.2 kV=0.23 kW=1 PF=0.95
New Load.LOAD17 Phases=1 Bus1=1018.2 kV=0.23 kW=1 PF=0.95
New Load.LOAD18 Phases=1 Bus1=1071.3 kV=0.23 kW=1 PF=0.95
New Load.LOAD19 Phases=1 Bus1=1074.3 kV=0.23 kW=1 PF=0.95
New Load.LOAD20 Phases=1 Bus1=1075.1 kV=0.23 kW=1 PF=0.95
New Load.LOAD21 Phases=1 Bus1=1122.1 kV=0.23 kW=1 PF=0.95
New Load.LOAD22 Phases=1 Bus1=1134.3 kV=0.23 kW=1 PF=0.95
New Load.LOAD23 Phases=1 Bus1=1310.1 kV=0.23 kW=1 PF=0.95
New Load.LOAD24 Phases=1 Bus1=1326.2 kV=0.23 kW=1 PF=0.95
New Load.LOAD25 Phases=1 Bus1=1330.2 kV=0.23 kW=1 PF=0.95
New Load.LOAD26 Phases=1 Bus1=1356.1 kV=0.23 kW=1 PF=0.95
New Load.LOAD27 Phases=1 Bus1=1471.2 kV=0.23 kW=1 PF=0.95
New Load.LOAD28 Phases=1 Bus1=1472.3 kV=0.23 kW=1 PF=0.95
New Load.LOAD29 Phases=1 Bus1=1565.3 kV=0.23 kW=1 PF=0.95
New Load.LOAD30 Phases=1 Bus1=1566.3 kV=0.23 kW=1 PF=0.95
New Load.LOAD31 Phases=1 Bus1=1595.2 kV=0.23 kW=1 PF=0.95
New Load.LOAD32 Phases=1 Bus1=1720.2 kV=0.23 kW=1 PF=0.95
New Load.LOAD33 Phases=1 Bus1=1740.3 kV=0.23 kW=1 PF=0.95
New Load.LOAD34 Phases=1 Bus1=1780.3 kV=0.23 kW=1 PF=0.95
New Load.LOAD35 Phases=1 Bus1=1864.1 kV=0.23 kW=1 PF=0.95
New Load.LOAD36 Phases=1 Bus1=1865.1 kV=0.23 kW=1 PF=0.95
New Load.LOAD37 Phases=1 Bus1=1909.2 kV=0.23 kW=1 PF=0.95
New Load.LOAD38 Phases=1 Bus1=1942.3 kV=0.23 kW=1 PF=0.95
New Load.LOAD39 Phases=1 Bus1=2033.2 kV=0.23 kW=1 PF=0.95
New Load.LOAD40 Phases=1 Bus1=2034.2 kV=0.23 kW=1 PF=0.95
New Load.LOAD41 Phases=1 Bus1=2038.3 kV=0.23 kW=1 PF=0.95
New Load.LOAD42 Phases=1 Bus1=2071.1 kV=0.23 kW=1 PF=0.95
New Load.LOAD43 Phases=1 Bus1=2111.3 kV=0.23 kW=1 PF=0.95
New Load.LOAD44 Phases=1 Bus1=2123.1 kV=0.23 kW=1 PF=0.95
New Load.LOAD45 Phases=1 Bus1=2195.3 kV=0.23 kW=1 PF=0.95
New Load.LOAD46 Phases=1 Bus1=2248.1 kV=0.23 kW=1 PF=0.95
New Load.LOAD47 Phases=1 Bus1=2285.3 kV=0.23 kW=1 PF=0.95
New Load.LOAD48 Phases=1 Bus1=2289.2 kV=0.23 kW=1 PF=0.95
New Load.LOAD49 Phases=1 Bus1=2310.3 kV=0.23 kW=1 PF=0.95
New Load.LOAD50 Phases=1 Bus1=2344.1 kV=0.23 kW=1 PF=0.95
New Load.LOAD51 Phases=1 Bus1=2444.3 kV=0.23 kW=1 PF=0.95
New Load.LOAD52 Phases=1 Bus1=2453.3 kV=0.23 kW=1 PF=0.95
New Load.LOAD53 Phases=1 Bus1=2490.1 kV=0.23 kW=1 PF=0.95
New Load.LOAD54 Phases=1 Bus1=2505.1 kV=0.23 kW=1 PF=0.95
New Load.LOAD55 Phases=1 Bus1=2526.2 kV=0.23 kW=1 PF=0.95
New Load.LOAD56 Phases=1 Bus1=2556.1 kV=0.23 kW=1 PF=0.95
New Load.LOAD57 Phases=1 Bus1=2558.3 kV=0.23 kW=1 PF=0.95
New Load.LOAD58 Phases=1 Bus1=2586.3 kV=0.23 kW=1 PF=0.95
New Load.LOAD59 Phases=1 Bus1=2590.3 kV=0.23 kW=1 PF=0.95
New Load.LOAD60 Phases=1 Bus1=2621.3 kV=0.23 kW=1 PF=0.95
New Load.LOAD61 Phases=1 Bus1=2695.3 kV=0.23 kW=1 PF=0.95
New Load.LOAD62 Phases=1 Bus1=2770.1 kV=0.23 kW=1 PF=0.95
New Load.LOAD63 Phases=1 Bus1=2773.2 kV=0.23 kW=1 PF=0.95
New Load.LOAD64 Phases=1 Bus1=2810.1 kV=0.23 kW=1 PF=0.95
New Load.LOAD65 Phases=1 Bus1=2846.1 kV=0.23 kW=1 PF=0.95
New Load.LOAD66 Phases=1 Bus1=2853.2 kV=0.23 kW=1 PF=0.95
New Load.LOAD67 Phases=1 Bus1=2854.1 kV=0.23 kW=1 PF=0.95
New Load.LOAD68 Phases=1 Bus1=2952.1 kV=0.23 kW=1 PF=0.95
New Load.LOAD69 Phases=1 Bus1=2953.2 kV=0.23 kW=1 PF=0.95
New Load.LOAD70 Phases=1 Bus1=2954.3 kV=0.23 kW=1 PF=0.95
New Load.LOAD71 Phases=1 Bus1=3016.2 kV=0.23 kW=1 PF=0.95
New Load.LOAD72 Phases=1 Bus1=3034.3 kV=0.23 kW=1 PF=0.95
New Load.LOAD73 Phases=1 Bus1=3077.2 kV=0.23 kW=1 PF=0.95
New Load.LOAD74 Phases=1 Bus1=3124.2 kV=0.23 kW=1 PF=0.95
New Load.LOAD75 Phases=1 Bus1=3151.2 kV=0.23 kW=1 PF=0.95
New Load.LOAD76 Phases=1 Bus1=3161.1 kV=0.23 kW=1 PF=0.95
New Load.LOAD77 Phases=1 Bus1=3162.1 kV=0.23 kW=1 PF=0.95
New Load.LOAD78 Phases=1 Bus1=3168.3 kV=0.23 kW=1 PF=0.95
New Load.LOAD79 Phases=1 Bus1=3182.1 kV=0.23 kW=1 PF=0.95
New Load.LOAD80 Phases=1 Bus1=3193.2 kV=0.23 kW=1 PF=0.95
New Load.LOAD81 Phases=1 Bus1=3194.2 kV=0.23 kW=1 PF=0.95
New Load.LOAD82 Phases=1 Bus1=3211.2 kV=0.23 kW=1 PF=0.95
New Load.LOAD83 Phases=1 Bus1=3214.3 kV=0.23 kW=1 PF=0.95
New Load.LOAD84 Phases=1 Bus1=3231.2 kV=0.23 kW=1 PF=0.95
New Load.LOAD85 Phases=1 Bus1=3248.3 kV=0.23 kW=1 PF=0.95
New Load.LOAD86 Phases=1 Bus1=3294.3 kV=0.23 kW=1 PF=0.95
New Load.LOAD87 Phases=1 Bus1=3296.3 kV=0.23 kW=1 PF=0.95
New Load.LOAD88 Phases=1 Bus1=3297.3 kV=0.23 kW=1 PF=0.95
New Load.LOAD89 Phases=1 Bus1=3305.2 kV=0.23 kW=1 PF=0.95
New Load.LOAD90 Phases=1 Bus1=3330.1 kV=0.23 kW=1 PF=0.95
New Load.LOAD91 Phases=1 Bus1=3342.3 kV=0.23 kW=1 PF=0.95
New Load.LOAD92 Phases=1 Bus1=3430.1 kV=0.23 kW=1 PF=0.95
New Load.LOAD93 Phases=1 Bus1=3443.1 kV=0.23 kW=1 PF=0.95
New Load.LOAD94 Phases=1 Bus1=3453.3 kV=0.23 kW=1 PF=0.95
New Load.LOAD95 Phases=1 Bus1=3545.1 kV=0.23 kW=1 PF=0.95
New Load.LOAD96 Phases=1 Bus1=3596.1 kV=0.23 kW=1 PF=0.95
New Load.LOAD97 Phases=1 Bus1=3760.1 kV=0.23 kW=1 PF=0.95
New Load.LOAD98 Phases=1 Bus1=3815.2 kV=0.23 kW=1 PF=0.95
New Load.LOAD99 Phases=1 Bus1=3870.2 kV=0.23 kW=1 PF=0.95
New Load.LOAD100 Phases=1 Bus1=3900.2 kV=0.23 kW=1 PF=0.95
New Load.LOAD101 Phases=1 Bus1=3955.3 kV=0.23 kW=1 PF=0.95
New Load.LOAD102 Phases=1 Bus1=3981.1 kV=0.23 kW=1 PF=0.95
New Load.LOAD103 Phases=1 Bus1=3983.2 kV=0.23 kW=1 PF=0.95
New Load.LOAD104 Phases=1 Bus1=4021.2 kV=0.23 kW=1 PF=0.95
New Load.LOAD105 Phases=1 Bus1=4032.3 kV=0.23 kW=1 PF=0.95
New Load.LOAD106 Phases=1 Bus1=4059.1 kV=0.23 kW=1 PF=0.95
New Load.LOAD107 Phases=1 Bus1=4068.2 kV=0.23 kW=1 PF=0.95
New Load.LOAD108 Phases=1 Bus1=4139.3 kV=0.23 kW=1 PF=0.95
New Load.LOAD109 Phases=1 Bus1=4164.1 kV=0.23 kW=1 PF=0.95
New Load.LOAD110 Phases=1 Bus1=4167.2 kV=0.23 kW=1 PF=0.95
New Load.LOAD111 Phases=1 Bus1=4232.2 kV=0.23 kW=1 PF=0.95
New Load.LOAD112 Phases=1 Bus1=4257.2 kV=0.23 kW=1 PF=0.95
New Load.LOAD113 Phases=1 Bus1=4264.2 kV=0.23 kW=1 PF=0.95
New Load.LOAD114 Phases=1 Bus1=4404.2 kV=0.23 kW=1 PF=0.95
New Load.LOAD115 Phases=1 Bus1=4491.2 kV=0.23 kW=1 PF=0.95
New Load.LOAD116 Phases=1 Bus1=4497.1 kV=0.23 kW=1 PF=0.95
New Load.LOAD117 Phases=1 Bus1=4521.2 kV=0.23 kW=1 PF=0.95
New Load.LOAD118 Phases=1 Bus1=4547.3 kV=0.23 kW=1 PF=0.95
New Load.LOAD119 Phases=1 Bus1=4592.3 kV=0.23 kW=1 PF=0.95
New Load.LOAD120 Phases=1 Bus1=4609.3 kV=0.23 kW=1 PF=0.95
New Load.LOAD121 Phases=1 Bus1=4617.1 kV=0.23 kW=1 PF=0.95
New Load.LOAD122 Phases=1 Bus1=4637.3 kV=0.23 kW=1 PF=0.95
New Load.LOAD123 Phases=1 Bus1=4691.2 kV=0.23 kW=1 PF=0.95
New Load.LOAD124 Phases=1 Bus1=4694.3 kV=0.23 kW=1 PF=0.95
New Load.LOAD125 Phases=1 Bus1=4710.2 kV=0.23 kW=1 PF=0.95
New Load.LOAD126 Phases=1 Bus1=4711.2 kV=0.23 kW=1 PF=0.95
New Load.LOAD127 Phases=1 Bus1=4712.1 kV=0.23 kW=1 PF=0.95
New Load.LOAD128 Phases=1 Bus1=4720.2 kV=0.23 kW=1 PF=0.95
New Load.LOAD129 Phases=1 Bus1=4721.2 kV=0.23 kW=1 PF=0.95
New Load.LOAD130 Phases=1 Bus1=4724.3 kV=0.23 kW=1 PF=0.95
New Load.LOAD131 Phases=1 Bus1=4735.1 kV=0.23 kW=1 PF=0.95
New Load.LOAD132 Phases=1 Bus1=4739.3 kV=0.23 kW=1 PF=0.95
New Load.LOAD133 Phases=1 Bus1=4746.2 kV=0.23 kW=1 PF=0.95
New Load.LOAD134 Phases=1 Bus1=4748.1 kV=0.23 kW=1 PF=0.95
New Load.LOAD135 Phases=1 Bus1=4751.3 kV=0.23 kW=1 PF=0.95
New Load.LOAD136 Phases=1 Bus1=4752.3 kV=0.23 kW=1 PF=0.95
New Load.LOAD137 Phases=1 Bus1=4759.1 kV=0.23 kW=1 PF=0.95
New Load.LOAD138 Phases=1 Bus1=4768.1 kV=0.23 kW=1 PF=0.95