New Load.LOAD1 Phases=1 Bus1=74.2 kV=0.23 kW=1 PF=0.95
New Load.LOAD2 Phases=1 Bus1=192.2 kV=0.23 kW=1 PF=0.95
New Load.LOAD3 Phases=1 Bus1=213.2 kV=0.23 kW=1 PF=0.95
New Load.LOAD4 Phases=1 Bus1=432.1 kV=0.23 kW=1 PF=0.95
New Load.LOAD5 Phases=1 Bus1=461.1 kV=0.23 kW=1 PF=0.95
New Load.LOAD6 Phases=1 Bus1=496.1 kV=0.23 kW=1 PF=0.95
New Load.LOAD7 Phases=1 Bus1=510.1 kV=0.23 kW=1 PF=0.95
New Load.LOAD8 Phases=1 Bus1=774.3 kV=0.23 kW=1 PF=0.95
New Load.LOAD9 Phases=1 Bus1=797.3 kV=0.23 kW=1 PF=0.95
New Load.LOAD10 Phases=1 Bus1=856.1 kV=0.23 kW=1 PF=0.95
New Load.LOAD11 Phases=1 Bus1=903.3 kV=0.23 kW=1 PF=0.95
New Load.LOAD12 Phases=1 Bus1=921.1 kV=0.23 kW=1 PF=0.95
New Load.LOAD13 Phases=1 Bus1=987.1 kV=0.23 kW=1 PF=0.95
New Load.LOAD14 Phases=1 Bus1=1079.2 kV=0.23 kW=1 PF=0.95
New Load.LOAD15 Phases=1 Bus1=1080.2 kV=0.23 kW=1 PF=0.95
New Load.LOAD16 Phases=1 Bus1=1104.1 kV=0.23 kW=1 PF=0.95
New Load.LOAD17 Phases=1 Bus1=1106.3 kV=0.23 kW=1 PF=0.95
New Load.LOAD18 Phases=1 Bus1=1134.2 kV=0.23 kW=1 PF=0.95
New Load.LOAD19 Phases=1 Bus1=1170.3 kV=0.23 kW=1 PF=0.95
New Load.LOAD20 Phases=1 Bus1=1186.1 kV=0.23 kW=1 PF=0.95
New Load.LOAD21 Phases=1 Bus1=1202.1 kV=0.23 kW=1 PF=0.95
New Load.LOAD22 Phases=1 Bus1=1223.3 kV=0.23 kW=1 PF=0.95
New Load.LOAD23 Phases=1 Bus1=1301.1 kV=0.23 kW=1 PF=0.95